*Heading
** Job name: Job-3-SOFT-Single Model name: Model-Single
** Generated by: Abaqus/CAE 2022
*Preprint, echo=NO, model=NO, history=NO, contact=NO
**
** PARTS
**
*Part, name=Part-cell
*Node
      1,           0.,           0.,           0.
      2,           0.,           0.,         12.5
      3,           0.,         12.5,           0.
      4,         12.5,           0.,           0.
      5,           0.,           0.,  0.961538434
      6,           0.,           0.,   1.92307687
      7,           0.,           0.,   2.88461542
      8,           0.,           0.,   3.84615374
      9,           0.,           0.,   4.80769253
     10,           0.,           0.,   5.76923084
     11,           0.,           0.,   6.73076916
     12,           0.,           0.,   7.69230747
     13,           0.,           0.,   8.65384579
     14,           0.,           0.,   9.61538506
     15,           0.,           0.,   10.5769234
     16,           0.,           0.,   11.5384617
     17,           0.,  0.980738699,   12.4614668
     18,           0.,   1.95543087,   12.3461046
     19,           0.,   2.91806698,    12.154624
     20,           0.,   3.86271238,   11.8882065
** ... 1798 like lines cut
*Element, type=C3D4
   1,  729,  730,  731,  732
   2,  729,  733,  734,  735
   3,  729,  734,  736,  730
   4,  737,  734,  738,  729
   5,  739,  740,  627,  623
   6,  729,  735,  734,  738
   7,  729,  741,  742,  743
   8,  744,  745,  746,  747
   9,  746,  748,  744,  749
  10,  744,  749,  750,  746
  11,  744,  751,  752,  750
  12,  744,  753,  748,  754
  13,  751,  755,  752,  756
  14,  757,  744,  746,  748
  15,  744,  758,  757,  745
  16,  732,  759,  760,  741
  17,  761,  762,  763,  764
  18,  741,  765,  766,  767
  19,  729,  741,  732,  731
  20,  729,  768,  742,  731
** ... 8557 like lines cut
*Nset, nset=Set-4, generate
    1,  1818,     1
*Elset, elset=Set-4, generate
    1,  8577,     1
** Section: Section-cell
*Solid Section, elset=Set-4, material=Material-cell
,
*End Part
**  
*Part, name=Part-matrixvoid
*Node
      1,           0.,         13.5,         13.5
      2,           0.,           0.,         13.5
      3,           0.,           0.,         200.
      4,           0.,         13.5,         200.
      5,         13.5,           0.,         13.5
      6,         13.5,           0.,         200.
      7,         13.5,         13.5,         200.
      8,         13.5,         13.5,         13.5
      9,           0.,         13.5,           0.
     10,           0.,         200.,         200.
     11,           0.,         200.,           0.
     12,         13.5,         200.,         200.
     13,         13.5,         200.,           0.
     14,         13.5,         13.5,           0.
     15,         13.5,           0.,           0.
     16,         200.,           0.,           0.
     17,         200.,           0.,         200.
     18,         200.,         200.,           0.
     19,         200.,         200.,         200.
     20,           0.,           0.,         12.5
** ... 9605 like lines cut
*Element, type=C3D8
 1,  8,  5, 76, 77,  1,  2, 23, 58
 2, 77, 76, 75, 78, 58, 23, 24, 57
 3, 78, 75, 74, 79, 57, 24, 25, 56
 4, 79, 74, 73, 80, 56, 25, 26, 55
 5, 80, 73, 72, 81, 55, 26, 27, 54
 6, 81, 72, 71, 82, 54, 27, 28, 53
 7, 82, 71, 70, 83, 53, 28, 29, 52
 8, 83, 70, 69, 84, 52, 29, 30, 51
 9, 84, 69, 68, 85, 51, 30, 31, 50
10, 85, 68, 67, 86, 50, 31, 32, 49
11, 86, 67, 66, 87, 49, 32, 33, 48
12, 87, 66, 65, 88, 48, 33, 34, 47
13, 88, 65, 64, 89, 47, 34, 35, 46
14, 89, 64, 63, 90, 46, 35, 36, 45
15, 90, 63, 62, 91, 45, 36, 37, 44
16, 91, 62, 61, 92, 44, 37, 38, 43
17, 92, 61, 60, 93, 43, 38, 39, 42
18, 93, 60, 59, 94, 42, 39, 40, 41
19, 94, 59,  6,  7, 41, 40,  3,  4
 20,   14,    8,  752,  187,    9,    1,  410,  149
** ... 7979 like lines cut
*Element, type=C3D4
8000, 9576, 9577, 2935, 2936
8001, 9576, 2935, 2952, 2953
8002, 9576, 9578, 9579, 9580
8003, 9576, 9581, 9582, 9583
8004, 2882, 9584, 2863, 9585
8005, 9576, 9577, 2913, 9586
8006,   15,   14, 9587, 9588
8007,    8,   14, 9588, 9589
8008, 9579, 9583, 9589, 9576
8009, 9576, 9579, 9586, 9589
8010, 9590, 9589, 9591, 9592
8011, 9590, 9593, 3057, 9594
8012, 2985, 2962, 2986, 9587
8013, 9595, 9580, 9596, 2951
8014, 9595, 9582, 2981, 9581
8015, 9595, 9597, 2963, 2986
8016, 9583, 3065, 9587, 9595
8017, 2983, 2824, 9596, 9595
8018, 9598, 9579, 9599, 9600
8019, 9601, 9577, 2900, 2931
** ... 1034 like lines cut
*Nset, nset=Set-1, generate
    1,  9625,     1
*Elset, elset=Set-1, generate
    1,  9053,     1
** Section: Section-matrix
*Solid Section, elset=Set-1, material=Material-matrix
,
*End Part
**  
**
** ASSEMBLY
**
*Assembly, name=Assembly
**  
*Instance, name=Part-cell-1, part=Part-cell
*End Instance
**  
*Instance, name=Part-matrixvoid-1, part=Part-matrixvoid
*End Instance
**  
*Nset, nset=Set-5, instance=Part-cell-1, generate
 1,  4,  1
*Nset, nset=Set-9, instance=Part-cell-1
 1,
*Nset, nset=Set-18, instance=Part-cell-1, generate
    1,  1818,     1
*Elset, elset=Set-18, instance=Part-cell-1, generate
    1,  8577,     1
*Nset, nset=Set-19, instance=Part-cell-1, generate
    1,  1818,     1
*Elset, elset=Set-19, instance=Part-cell-1, generate
    1,  8577,     1
*Nset, nset=Set-20, instance=Part-cell-1
   1,   2,   3,   5,   6,   7,   8,   9,  10,  11,  12,  13,  14,  15,  16,  17
  18,  19,  20,  21,  22,  23,  24,  25,  26,  27,  28,  29,  30,  31,  32,  33
  34,  35,  36,  37,  38,  39,  40,  41,  42,  43,  44,  45,  46,  47,  98,  99
 100, 101, 102, 103, 104, 105, 106, 107, 108, 109, 110, 111, 112, 113, 114, 115
 116, 117, 118, 119, 120, 121, 122, 123, 124, 125, 126, 127, 128, 129, 130, 131
 132, 133, 134, 135, 136, 137, 138, 139, 140, 141, 142, 143, 144, 145, 146, 147
 148, 149, 150, 151, 152, 153, 154, 155, 156, 157, 158, 159, 160, 161, 162, 163
 164, 165, 166, 167, 168, 169, 170, 171, 172, 173, 174, 175, 176, 177, 178, 179
 180, 181, 182, 183, 184, 185, 186, 187, 188, 189, 190, 191, 192, 193, 194, 195
 196, 197, 198, 199, 200, 201, 202, 203, 204, 205, 206, 207, 208, 209, 210, 211
 212, 213, 214, 215, 216, 217, 218, 219, 220, 221, 222, 223, 224, 225, 226, 227
 228, 229, 230, 231, 232
*Elset, elset=Set-20, instance=Part-cell-1
   51,   53,   85,  137,  183,  277,  417,  463,  547,  604,  605,  652,  667,  791, 1238, 1271
 1285, 1334, 1579, 1584, 1586, 1587, 1588, 1592, 1596, 1606, 1609, 1615, 1627, 1635, 1646, 1651
 1660, 1672, 1735, 1737, 1739, 1744, 1745, 1752, 1757, 1761, 1762, 1766, 1767, 1769, 1792, 1797
 1803, 1815, 1822, 1831, 1833, 1839, 1855, 1881, 1884, 1886, 1890, 1891, 1900, 1905, 1907, 1914
 1915, 1927, 1929, 1934, 1943, 1948, 1962, 1963, 1969, 1970, 1976, 1984, 1986, 2007, 2012, 2014
 2017, 2027, 2028, 2029, 2037, 2040, 2047, 2056, 2063, 2064, 2066, 2073, 2075, 2076, 2079, 2090
 2091, 2098, 2100, 2103, 2111, 2112, 2118, 2127, 2128, 2129, 2132, 2142, 2153, 2157, 2166, 2174
 2177, 2179, 2183, 2184, 2192, 2194, 2195, 2196, 2199, 2200, 2205, 2208, 2209, 2210, 2212, 2213
 2219, 2220, 2227, 2234, 2235, 2245, 2247, 2250, 2252, 2257, 2258, 2262, 2275, 2277, 2285, 2291
 2298, 2301, 2302, 2303, 2307, 2309, 2312, 2315, 2324, 2325, 2330, 2332, 2335, 2338, 2339, 2340
 2343, 2348, 2357, 2363, 2365, 2367, 2375, 2376, 2377, 2385, 2386, 2394, 2395, 2396, 2399, 2401
 2403, 2409, 2412, 2422, 2423, 2427, 2436, 2437, 2442, 2446, 2452, 2453, 2455, 2463, 2464, 2467
 2468, 2474, 2476, 2481, 2482, 2487, 2489, 2493, 2496, 2501, 2504, 2505, 2510, 2514, 2517, 2519
 2521, 2529, 2533, 2534, 2537, 2538, 2548, 2549, 2550, 2556, 2566, 2570, 2572, 2573, 2577, 2579
 2582, 2589, 2597, 2605, 2606, 2615, 2618, 2629, 2630, 2635, 2636, 2641, 2658, 2659, 2663, 2669
 2674, 2675, 2676, 2679, 2683, 2704, 2724, 2727, 2728, 2736, 2780, 2790, 2792, 2815, 2828, 2921
 3076, 3094, 3217, 3243, 3257, 3573, 3597, 3600, 3602, 3608, 3612, 3617, 3618, 3622, 3624, 3625
 3633, 3636, 3638, 3644, 3645, 3646, 3647, 3651, 3654, 3659, 3661, 3667, 3670, 3673, 3677, 3682
 3704, 3711, 3753, 3754, 3758, 3766, 3769, 3771, 3790, 3958, 4251, 4563, 4564, 4764, 4776, 4777
 5106, 5107, 5123, 5137, 5142, 5144, 5261, 5479, 5533, 8223
*Nset, nset=Set-21, instance=Part-cell-1
   1,   3,   4,  36,  37,  38,  39,  40,  41,  42,  43,  44,  45,  46,  47,  48
  49,  50,  51,  52,  53,  54,  55,  56,  57,  58,  59,  79,  80,  81,  82,  83
  84,  85,  86,  87,  88,  89,  90,  91,  92,  93,  94,  95,  96,  97, 595, 596
 597, 598, 599, 600, 601, 602, 603, 604, 605, 606, 607, 608, 609, 610, 611, 612
 613, 614, 615, 616, 617, 618, 619, 620, 621, 622, 623, 624, 625, 626, 627, 628
 629, 630, 631, 632, 633, 634, 635, 636, 637, 638, 639, 640, 641, 642, 643, 644
 645, 646, 647, 648, 649, 650, 651, 652, 653, 654, 655, 656, 657, 658, 659, 660
 661, 662, 663, 664, 665, 666, 667, 668, 669, 670, 671, 672, 673, 674, 675, 676
 677, 678, 679, 680, 681, 682, 683, 684, 685, 686, 687, 688, 689, 690, 691, 692
 693, 694, 695, 696, 697, 698, 699, 700, 701, 702, 703, 704, 705, 706, 707, 708
 709, 710, 711, 712, 713, 714, 715, 716, 717, 718, 719, 720, 721, 722, 723, 724
 725, 726, 727, 728
*Elset, elset=Set-21, instance=Part-cell-1
   53,  244,  261,  345,  360,  363,  364,  434,  566,  791,  830,  932, 1333, 1334, 1586, 1587
 1636, 1640, 1661, 1666, 1694, 1831, 2046, 2057, 2118, 2217, 2271, 2362, 2365, 2367, 2412, 2437
 2466, 2547, 2565, 2638, 2707, 2757, 2760, 2763, 2771, 2775, 2776, 2862, 2869, 2908, 2914, 2933
 2946, 3038, 3047, 3238, 3247, 3252, 3254, 3267, 3269, 3282, 3325, 3455, 3471, 3477, 3526, 3574
 3597, 3598, 3601, 3603, 3802, 3822, 3845, 3852, 3854, 3874, 3894, 3897, 3915, 3923, 3925, 3926
 3938, 4011, 4032, 4067, 4079, 4080, 4161, 4264, 4360, 4476, 4478, 4497, 4504, 4549, 4575, 4588
 4596, 4619, 4638, 4654, 4659, 4687, 4689, 4705, 4708, 4744, 4745, 4972, 4978, 5053, 5066, 5069
 5080, 5110, 5117, 5119, 5139, 5141, 5151, 5155, 5156, 5164, 5171, 5173, 5175, 5176, 5186, 5190
 5196, 5201, 5208, 5209, 5220, 5234, 5235, 5238, 5239, 5244, 5248, 5250, 5255, 5266, 5267, 5268
 5271, 5279, 5297, 5302, 5304, 5305, 5309, 5311, 5317, 5324, 5329, 5331, 5333, 5336, 5344, 5351
 5360, 5365, 5371, 5392, 5407, 5412, 5421, 5422, 5434, 5437, 5443, 5447, 5456, 5463, 5464, 5465
 5468, 5469, 5480, 5485, 5486, 5488, 5489, 5497, 5504, 5508, 5517, 5519, 5521, 5522, 5528, 5531
 5535, 5538, 5549, 5554, 5556, 5558, 5561, 5562, 5568, 5569, 5572, 5580, 5583, 5595, 5599, 5600
 5606, 5615, 5619, 5620, 5621, 5624, 5627, 5629, 5630, 5634, 5636, 5639, 5650, 5651, 5653, 5664
 5677, 5678, 5682, 5690, 5691, 5693, 5699, 5700, 5701, 5709, 5710, 5716, 5717, 5718, 5723, 5725
 5727, 5730, 5738, 5739, 5742, 5754, 5755, 5757, 5765, 5774, 5778, 5783, 5790, 5791, 5792, 5795
 5798, 5799, 5806, 5809, 5812, 5814, 5815, 5816, 5823, 5825, 5829, 5830, 5832, 5833, 5835, 5837
 5843, 5845, 5847, 5849, 5852, 5877, 5921, 5958, 5978, 6066, 6079, 6132, 6140, 6402, 6403, 6405
 6450, 6486, 6563, 6709, 6839, 7011, 7026, 7321, 7324, 7327, 7369, 7473, 7506, 7568, 7607, 7612
 7760, 7962, 7995, 8082, 8220, 8330, 8333, 8351
*Nset, nset=Set-22, instance=Part-cell-1
   1,   2,   4,   5,   6,   7,   8,   9,  10,  11,  12,  13,  14,  15,  16,  48
  49,  50,  51,  52,  53,  54,  55,  56,  57,  58,  59,  60,  61,  62,  63,  64
  65,  66,  67,  68,  69,  70,  71,  72,  73,  74,  75,  76,  77,  78, 233, 234
 235, 236, 237, 238, 239, 240, 241, 242, 243, 244, 245, 246, 247, 248, 249, 250
 251, 252, 253, 254, 255, 256, 257, 258, 259, 260, 261, 262, 263, 264, 265, 266
 267, 268, 269, 270, 271, 272, 273, 274, 275, 276, 277, 278, 279, 280, 281, 282
 283, 284, 285, 286, 287, 288, 289, 290, 291, 292, 293, 294, 295, 296, 297, 298
 299, 300, 301, 302, 303, 304, 305, 306, 307, 308, 309, 310, 311, 312, 313, 314
 315, 316, 317, 318, 319, 320, 321, 322, 323, 324, 325, 326, 327, 328, 329, 330
 331, 332, 333, 334, 335, 336, 337, 338, 339, 340, 341, 342, 343, 344, 345, 346
 347, 348, 349, 350, 351, 352, 353, 354, 355, 356, 357, 358, 359, 360, 361, 362
 363, 364, 365
*Elset, elset=Set-22, instance=Part-cell-1
  137,  419,  620,  672,  770,  865, 1129, 1219, 1369, 1455, 1502, 1584, 1596, 1617, 1619, 1622
 1624, 1631, 1639, 1640, 1647, 1731, 1766, 1860, 1864, 1886, 1904, 1907, 1922, 1948, 1957, 1970
 2097, 2101, 2155, 2161, 2162, 2164, 2209, 2240, 2389, 2419, 2456, 2484, 2531, 2587, 2595, 2609
 2681, 2682, 2683, 2708, 2719, 2724, 2746, 2747, 2748, 2754, 2757, 2758, 2760, 2763, 2770, 2776
 2779, 2785, 2789, 2796, 2799, 2802, 2807, 2827, 2829, 2833, 2843, 2845, 2850, 2853, 2864, 2870
 2871, 2884, 2893, 2894, 2896, 2899, 2906, 2910, 2916, 2922, 2925, 2931, 2933, 2936, 2944, 2952
 2957, 2958, 2961, 2967, 2984, 2988, 2990, 3004, 3009, 3017, 3022, 3027, 3028, 3044, 3056, 3059
 3063, 3072, 3079, 3080, 3082, 3091, 3093, 3095, 3100, 3101, 3116, 3118, 3131, 3142, 3148, 3159
 3175, 3176, 3177, 3188, 3190, 3202, 3204, 3206, 3207, 3209, 3211, 3213, 3214, 3216, 3219, 3224
 3225, 3226, 3229, 3233, 3235, 3238, 3244, 3247, 3258, 3259, 3266, 3272, 3283, 3288, 3305, 3313
 3315, 3317, 3319, 3325, 3346, 3355, 3357, 3367, 3368, 3372, 3376, 3382, 3386, 3389, 3390, 3391
 3404, 3412, 3414, 3418, 3419, 3421, 3427, 3428, 3432, 3434, 3437, 3440, 3443, 3444, 3446, 3459
 3464, 3478, 3479, 3487, 3492, 3493, 3509, 3512, 3519, 3524, 3537, 3541, 3545, 3546, 3551, 3558
 3559, 3562, 3566, 3568, 3583, 3588, 3590, 3705, 3726, 3736, 3740, 3743, 3752, 3792, 3794, 3797
 3804, 3805, 3811, 3817, 3830, 3842, 3846, 3851, 3866, 3875, 3881, 3882, 3887, 3891, 3897, 3911
 3915, 3917, 4025, 4042, 4049, 4051, 4059, 4068, 4072, 4073, 4081, 4086, 4088, 4095, 4099, 4120
 4122, 4132, 4148, 4149, 4155, 4164, 4182, 4185, 4193, 4205, 4206, 4212, 4222, 4226, 4233, 4253
 4286, 4306, 4373, 4395, 4397, 4406, 4458, 4778, 4806, 4812, 4826, 4829, 4912, 4960, 5095, 5146
 5148, 5153, 5178, 5204, 5322, 5353, 5803, 5995, 6368, 6479, 6487, 6627, 6860, 6890, 6893, 7210
 7408, 7411, 7437, 7605, 7955, 8525
*Nset, nset=Set-23, instance=Part-matrixvoid-1
   16,   17,   18,   19,  223,  224,  225,  226,  227,  228,  229,  230,  231,  232,  233,  234
  235,  236,  237,  238,  239,  240,  241,  278,  279,  280,  281,  282,  283,  284,  285,  286
  287,  288,  289,  290,  291,  292,  293,  294,  295,  296,  315,  316,  317,  318,  319,  320
  321,  322,  323,  324,  325,  326,  327,  328,  329,  330,  331,  332,  333,  334,  335,  336
  337,  338,  339,  340,  341,  342,  343,  344,  345,  346,  347,  348,  349,  350,  351,  352
 2462, 2463, 2464, 2465, 2466, 2467, 2468, 2469, 2470, 2471, 2472, 2473, 2474, 2475, 2476, 2477
 2478, 2479, 2480, 2481, 2482, 2483, 2484, 2485, 2486, 2487, 2488, 2489, 2490, 2491, 2492, 2493
 2494, 2495, 2496, 2497, 2498, 2499, 2500, 2501, 2502, 2503, 2504, 2505, 2506, 2507, 2508, 2509
 2510, 2511, 2512, 2513, 2514, 2515, 2516, 2517, 2518, 2519, 2520, 2521, 2522, 2523, 2524, 2525
 2526, 2527, 2528, 2529, 2530, 2531, 2532, 2533, 2534, 2535, 2536, 2537, 2538, 2539, 2540, 2541
 2542, 2543, 2544, 2545, 2546, 2547, 2548, 2549, 2550, 2551, 2552, 2553, 2554, 2555, 2556, 2557
 2558, 2559, 2560, 2561, 2562, 2563, 2564, 2565, 2566, 2567, 2568, 2569, 2570, 2571, 2572, 2573
 2574, 2575, 2576, 2577, 2578, 2579, 2580, 2581, 2582, 2583, 2584, 2585, 2586, 2587, 2588, 2589
 2590, 2591, 2592, 2593, 2594, 2595, 2596, 2597, 2598, 2599, 2600, 2601, 2602, 2603, 2604, 2605
 2606, 2607, 2608, 2609, 2610, 2611, 2612, 2613, 2614, 2615, 2616, 2617, 2618, 2619, 2620, 2621
 2622, 2623, 2624, 2625, 2626, 2627, 2628, 2629, 2630, 2631, 2632, 2633, 2634, 2635, 2636, 2637
 2638, 2639, 2640, 2641, 2642, 2643, 2644, 2645, 2646, 2647, 2648, 2649, 2650, 2651, 2652, 2653
 2654, 2655, 2656, 2657, 2658, 2659, 2660, 2661, 2662, 2663, 2664, 2665, 2666, 2667, 2668, 2669
 2670, 2671, 2672, 2673, 2674, 2675, 2676, 2677, 2678, 2679, 2680, 2681, 2682, 2683, 2684, 2685
 2686, 2687, 2688, 2689, 2690, 2691, 2692, 2693, 2694, 2695, 2696, 2697, 2698, 2699, 2700, 2701
** ... 8 like lines cut
*Elset, elset=Set-23, instance=Part-matrixvoid-1
  760,  761,  762,  763,  764,  765,  766,  767,  768,  769,  770,  771,  772,  773,  774,  775
  776,  777,  778,  779, 1140, 1141, 1142, 1143, 1144, 1145, 1146, 1147, 1148, 1149, 1150, 1151
 1152, 1153, 1154, 1155, 1156, 1157, 1158, 1159, 1520, 1521, 1522, 1523, 1524, 1525, 1526, 1527
 1528, 1529, 1530, 1531, 1532, 1533, 1534, 1535, 1536, 1537, 1538, 1539, 1900, 1901, 1902, 1903
 1904, 1905, 1906, 1907, 1908, 1909, 1910, 1911, 1912, 1913, 1914, 1915, 1916, 1917, 1918, 1919
 2280, 2281, 2282, 2283, 2284, 2285, 2286, 2287, 2288, 2289, 2290, 2291, 2292, 2293, 2294, 2295
 2296, 2297, 2298, 2299, 2660, 2661, 2662, 2663, 2664, 2665, 2666, 2667, 2668, 2669, 2670, 2671
 2672, 2673, 2674, 2675, 2676, 2677, 2678, 2679, 3040, 3041, 3042, 3043, 3044, 3045, 3046, 3047
 3048, 3049, 3050, 3051, 3052, 3053, 3054, 3055, 3056, 3057, 3058, 3059, 3420, 3421, 3422, 3423
 3424, 3425, 3426, 3427, 3428, 3429, 3430, 3431, 3432, 3433, 3434, 3435, 3436, 3437, 3438, 3439
 3800, 3801, 3802, 3803, 3804, 3805, 3806, 3807, 3808, 3809, 3810, 3811, 3812, 3813, 3814, 3815
 3816, 3817, 3818, 3819, 4180, 4181, 4182, 4183, 4184, 4185, 4186, 4187, 4188, 4189, 4190, 4191
 4192, 4193, 4194, 4195, 4196, 4197, 4198, 4199, 4560, 4561, 4562, 4563, 4564, 4565, 4566, 4567
 4568, 4569, 4570, 4571, 4572, 4573, 4574, 4575, 4576, 4577, 4578, 4579, 4940, 4941, 4942, 4943
 4944, 4945, 4946, 4947, 4948, 4949, 4950, 4951, 4952, 4953, 4954, 4955, 4956, 4957, 4958, 4959
 5320, 5321, 5322, 5323, 5324, 5325, 5326, 5327, 5328, 5329, 5330, 5331, 5332, 5333, 5334, 5335
 5336, 5337, 5338, 5339, 5700, 5701, 5702, 5703, 5704, 5705, 5706, 5707, 5708, 5709, 5710, 5711
 5712, 5713, 5714, 5715, 5716, 5717, 5718, 5719, 6080, 6081, 6082, 6083, 6084, 6085, 6086, 6087
 6088, 6089, 6090, 6091, 6092, 6093, 6094, 6095, 6096, 6097, 6098, 6099, 6460, 6461, 6462, 6463
 6464, 6465, 6466, 6467, 6468, 6469, 6470, 6471, 6472, 6473, 6474, 6475, 6476, 6477, 6478, 6479
** ... 5 like lines cut
*Nset, nset=Set-24, instance=Part-cell-1
   1,   2,   3,   5,   6,   7,   8,   9,  10,  11,  12,  13,  14,  15,  16,  17
  18,  19,  20,  21,  22,  23,  24,  25,  26,  27,  28,  29,  30,  31,  32,  33
  34,  35,  36,  37,  38,  39,  40,  41,  42,  43,  44,  45,  46,  47,  98,  99
 100, 101, 102, 103, 104, 105, 106, 107, 108, 109, 110, 111, 112, 113, 114, 115
 116, 117, 118, 119, 120, 121, 122, 123, 124, 125, 126, 127, 128, 129, 130, 131
 132, 133, 134, 135, 136, 137, 138, 139, 140, 141, 142, 143, 144, 145, 146, 147
 148, 149, 150, 151, 152, 153, 154, 155, 156, 157, 158, 159, 160, 161, 162, 163
 164, 165, 166, 167, 168, 169, 170, 171, 172, 173, 174, 175, 176, 177, 178, 179
 180, 181, 182, 183, 184, 185, 186, 187, 188, 189, 190, 191, 192, 193, 194, 195
 196, 197, 198, 199, 200, 201, 202, 203, 204, 205, 206, 207, 208, 209, 210, 211
 212, 213, 214, 215, 216, 217, 218, 219, 220, 221, 222, 223, 224, 225, 226, 227
 228, 229, 230, 231, 232
*Nset, nset=Set-24, instance=Part-matrixvoid-1
    1,    2,    3,    4,    9,   10,   11,   13,   14,   20,   21,   23,   24,   25,   26,   27
   28,   29,   30,   31,   32,   33,   34,   35,   36,   37,   38,   39,   40,   41,   42,   43
   44,   45,   46,   47,   48,   49,   50,   51,   52,   53,   54,   55,   56,   57,   58,   95
   96,   97,   98,   99,  100,  101,  102,  103,  104,  105,  106,  107,  108,  109,  110,  111
  112,  113,  114,  115,  116,  117,  118,  119,  120,  121,  122,  123,  124,  125,  126,  127
  128,  129,  130,  131,  132,  133,  134,  135,  136,  137,  138,  139,  140,  141,  142,  143
  144,  145,  146,  147,  148,  149,  187,  188,  189,  190,  191,  192,  193,  194,  195,  196
  197,  198,  199,  200,  201,  202,  203,  204,  353,  354,  355,  356,  357,  358,  359,  360
  361,  362,  363,  364,  365,  366,  367,  368,  369,  370,  371,  410,  411,  412,  413,  414
  415,  416,  417,  418,  419,  420,  421,  422,  423,  424,  425,  426,  427,  428,  429,  430
  431,  432,  433,  434,  435,  436,  437,  438,  439,  440,  441,  442,  443,  444,  445,  446
  447,  448,  449,  450,  451,  452,  453,  454,  455,  456,  457,  458,  459,  460,  461,  462
  463,  464,  465,  466,  467,  468,  469,  470,  471,  472,  473,  474,  475,  476,  477,  478
  479,  480,  481,  482,  483,  484,  485,  486,  487,  488,  489,  490,  491,  492,  493,  494
  495,  496,  497,  498,  499,  500,  501,  502,  503,  504,  505,  506,  507,  508,  509,  510
  511,  512,  513,  514,  515,  516,  517,  518,  519,  520,  521,  522,  523,  524,  525,  526
  527,  528,  529,  530,  531,  532,  533,  534,  535,  536,  537,  538,  539,  540,  541,  542
  543,  544,  545,  546,  547,  548,  549,  550,  551,  552,  553,  554,  555,  556,  557,  558
  559,  560,  561,  562,  563,  564,  565,  566,  567,  568,  569,  570,  571,  572,  573,  574
  575,  576,  577,  578,  579,  580,  581,  582,  583,  584,  585,  586,  587,  588,  589,  590
** ... 11 like lines cut
*Elset, elset=Set-24, instance=Part-cell-1
   51,   53,   85,  137,  183,  277,  417,  463,  547,  604,  605,  652,  667,  791, 1238, 1271
 1285, 1334, 1579, 1584, 1586, 1587, 1588, 1592, 1596, 1606, 1609, 1615, 1627, 1635, 1646, 1651
 1660, 1672, 1735, 1737, 1739, 1744, 1745, 1752, 1757, 1761, 1762, 1766, 1767, 1769, 1792, 1797
 1803, 1815, 1822, 1831, 1833, 1839, 1855, 1881, 1884, 1886, 1890, 1891, 1900, 1905, 1907, 1914
 1915, 1927, 1929, 1934, 1943, 1948, 1962, 1963, 1969, 1970, 1976, 1984, 1986, 2007, 2012, 2014
 2017, 2027, 2028, 2029, 2037, 2040, 2047, 2056, 2063, 2064, 2066, 2073, 2075, 2076, 2079, 2090
 2091, 2098, 2100, 2103, 2111, 2112, 2118, 2127, 2128, 2129, 2132, 2142, 2153, 2157, 2166, 2174
 2177, 2179, 2183, 2184, 2192, 2194, 2195, 2196, 2199, 2200, 2205, 2208, 2209, 2210, 2212, 2213
 2219, 2220, 2227, 2234, 2235, 2245, 2247, 2250, 2252, 2257, 2258, 2262, 2275, 2277, 2285, 2291
 2298, 2301, 2302, 2303, 2307, 2309, 2312, 2315, 2324, 2325, 2330, 2332, 2335, 2338, 2339, 2340
 2343, 2348, 2357, 2363, 2365, 2367, 2375, 2376, 2377, 2385, 2386, 2394, 2395, 2396, 2399, 2401
 2403, 2409, 2412, 2422, 2423, 2427, 2436, 2437, 2442, 2446, 2452, 2453, 2455, 2463, 2464, 2467
 2468, 2474, 2476, 2481, 2482, 2487, 2489, 2493, 2496, 2501, 2504, 2505, 2510, 2514, 2517, 2519
 2521, 2529, 2533, 2534, 2537, 2538, 2548, 2549, 2550, 2556, 2566, 2570, 2572, 2573, 2577, 2579
 2582, 2589, 2597, 2605, 2606, 2615, 2618, 2629, 2630, 2635, 2636, 2641, 2658, 2659, 2663, 2669
 2674, 2675, 2676, 2679, 2683, 2704, 2724, 2727, 2728, 2736, 2780, 2790, 2792, 2815, 2828, 2921
 3076, 3094, 3217, 3243, 3257, 3573, 3597, 3600, 3602, 3608, 3612, 3617, 3618, 3622, 3624, 3625
 3633, 3636, 3638, 3644, 3645, 3646, 3647, 3651, 3654, 3659, 3661, 3667, 3670, 3673, 3677, 3682
 3704, 3711, 3753, 3754, 3758, 3766, 3769, 3771, 3790, 3958, 4251, 4563, 4564, 4764, 4776, 4777
 5106, 5107, 5123, 5137, 5142, 5144, 5261, 5479, 5533, 8223
*Elset, elset=Set-24, instance=Part-matrixvoid-1
    1,    2,    3,    4,    5,    6,    7,    8,    9,   10,   11,   12,   13,   14,   15,   16
   17,   18,   19,   20,   21,   22,   23,   24,   25,   26,   27,   28,   29,   30,   31,   32
   33,   34,   35,   36,   37,   38,   39,   40,   41,   42,   43,   44,   45,   46,   47,   48
   49,   50,   51,   52,   53,   54,   55,   56,   57,   58,   59,   60,   61,   62,   63,   64
   65,   66,   67,   68,   69,   70,   71,   72,   73,   74,   75,   76,   77,   78,   79,   80
   81,   82,   83,   84,   85,   86,   87,   88,   89,   90,   91,   92,   93,   94,   95,   96
   97,   98,   99,  100,  101,  102,  103,  104,  105,  106,  107,  108,  109,  110,  111,  112
  113,  114,  115,  116,  117,  118,  119,  120,  121,  122,  123,  124,  125,  126,  127,  128
  129,  130,  131,  132,  133,  134,  135,  136,  137,  138,  139,  140,  141,  142,  143,  144
  145,  146,  147,  148,  149,  150,  151,  152,  153,  154,  155,  156,  157,  158,  159,  160
  161,  162,  163,  164,  165,  166,  167,  168,  169,  170,  171,  172,  173,  174,  175,  176
  177,  178,  179,  180,  181,  182,  183,  184,  185,  186,  187,  188,  189,  190,  191,  192
  193,  194,  195,  196,  197,  198,  199,  200,  201,  202,  203,  204,  205,  206,  207,  208
  209,  210,  211,  212,  213,  214,  215,  216,  217,  218,  219,  220,  221,  222,  223,  224
  225,  226,  227,  228,  229,  230,  231,  232,  233,  234,  235,  236,  237,  238,  239,  240
  241,  242,  243,  244,  245,  246,  247,  248,  249,  250,  251,  252,  253,  254,  255,  256
  257,  258,  259,  260,  261,  262,  263,  264,  265,  266,  267,  268,  269,  270,  271,  272
  273,  274,  275,  276,  277,  278,  279,  280,  281,  282,  283,  284,  285,  286,  287,  288
  289,  290,  291,  292,  293,  294,  295,  296,  297,  298,  299,  300,  301,  302,  303,  304
  305,  306,  307,  308,  309,  310,  311,  312,  313,  314,  315,  316,  317,  318,  319,  320
** ... 8 like lines cut
*Nset, nset=Set-25, instance=Part-cell-1
   1,   3,   4,  36,  37,  38,  39,  40,  41,  42,  43,  44,  45,  46,  47,  48
  49,  50,  51,  52,  53,  54,  55,  56,  57,  58,  59,  79,  80,  81,  82,  83
  84,  85,  86,  87,  88,  89,  90,  91,  92,  93,  94,  95,  96,  97, 595, 596
 597, 598, 599, 600, 601, 602, 603, 604, 605, 606, 607, 608, 609, 610, 611, 612
 613, 614, 615, 616, 617, 618, 619, 620, 621, 622, 623, 624, 625, 626, 627, 628
 629, 630, 631, 632, 633, 634, 635, 636, 637, 638, 639, 640, 641, 642, 643, 644
 645, 646, 647, 648, 649, 650, 651, 652, 653, 654, 655, 656, 657, 658, 659, 660
 661, 662, 663, 664, 665, 666, 667, 668, 669, 670, 671, 672, 673, 674, 675, 676
 677, 678, 679, 680, 681, 682, 683, 684, 685, 686, 687, 688, 689, 690, 691, 692
 693, 694, 695, 696, 697, 698, 699, 700, 701, 702, 703, 704, 705, 706, 707, 708
 709, 710, 711, 712, 713, 714, 715, 716, 717, 718, 719, 720, 721, 722, 723, 724
 725, 726, 727, 728
*Nset, nset=Set-25, instance=Part-matrixvoid-1
    9,   11,   13,   14,   15,   16,   18,   21,   22,  132,  133,  134,  135,  136,  137,  138
  139,  140,  141,  142,  143,  144,  145,  146,  147,  148,  149,  187,  188,  189,  190,  191
  192,  193,  194,  195,  196,  197,  198,  199,  200,  201,  202,  203,  204,  205,  206,  207
  208,  209,  210,  211,  212,  213,  214,  215,  216,  217,  218,  219,  220,  221,  222,  260
  261,  262,  263,  264,  265,  266,  267,  268,  269,  270,  271,  272,  273,  274,  275,  276
  277,  334,  335,  336,  337,  338,  339,  340,  341,  342,  343,  344,  345,  346,  347,  348
  349,  350,  351,  352,  372,  373,  374,  375,  376,  377,  378,  379,  380,  381,  382,  383
  384,  385,  386,  387,  388,  389,  390, 2120, 2121, 2122, 2123, 2124, 2125, 2126, 2127, 2128
 2129, 2130, 2131, 2132, 2133, 2134, 2135, 2136, 2137, 2138, 2139, 2140, 2141, 2142, 2143, 2144
 2145, 2146, 2147, 2148, 2149, 2150, 2151, 2152, 2153, 2154, 2155, 2156, 2157, 2158, 2159, 2160
 2161, 2162, 2163, 2164, 2165, 2166, 2167, 2168, 2169, 2170, 2171, 2172, 2173, 2174, 2175, 2176
 2177, 2178, 2179, 2180, 2181, 2182, 2183, 2184, 2185, 2186, 2187, 2188, 2189, 2190, 2191, 2192
 2193, 2194, 2195, 2196, 2197, 2198, 2199, 2200, 2201, 2202, 2203, 2204, 2205, 2206, 2207, 2208
 2209, 2210, 2211, 2212, 2213, 2214, 2215, 2216, 2217, 2218, 2219, 2220, 2221, 2222, 2223, 2224
 2225, 2226, 2227, 2228, 2229, 2230, 2231, 2232, 2233, 2234, 2235, 2236, 2237, 2238, 2239, 2240
 2241, 2242, 2243, 2244, 2245, 2246, 2247, 2248, 2249, 2250, 2251, 2252, 2253, 2254, 2255, 2256
 2257, 2258, 2259, 2260, 2261, 2262, 2263, 2264, 2265, 2266, 2267, 2268, 2269, 2270, 2271, 2272
 2273, 2274, 2275, 2276, 2277, 2278, 2279, 2280, 2281, 2282, 2283, 2284, 2285, 2286, 2287, 2288
 2289, 2290, 2291, 2292, 2293, 2294, 2295, 2296, 2297, 2298, 2299, 2300, 2301, 2302, 2303, 2304
 2305, 2306, 2307, 2308, 2309, 2310, 2311, 2312, 2313, 2314, 2315, 2316, 2317, 2318, 2319, 2320
** ... 10 like lines cut
*Elset, elset=Set-25, instance=Part-cell-1
   53,  244,  261,  345,  360,  363,  364,  434,  566,  791,  830,  932, 1333, 1334, 1586, 1587
 1636, 1640, 1661, 1666, 1694, 1831, 2046, 2057, 2118, 2217, 2271, 2362, 2365, 2367, 2412, 2437
 2466, 2547, 2565, 2638, 2707, 2757, 2760, 2763, 2771, 2775, 2776, 2862, 2869, 2908, 2914, 2933
 2946, 3038, 3047, 3238, 3247, 3252, 3254, 3267, 3269, 3282, 3325, 3455, 3471, 3477, 3526, 3574
 3597, 3598, 3601, 3603, 3802, 3822, 3845, 3852, 3854, 3874, 3894, 3897, 3915, 3923, 3925, 3926
 3938, 4011, 4032, 4067, 4079, 4080, 4161, 4264, 4360, 4476, 4478, 4497, 4504, 4549, 4575, 4588
 4596, 4619, 4638, 4654, 4659, 4687, 4689, 4705, 4708, 4744, 4745, 4972, 4978, 5053, 5066, 5069
 5080, 5110, 5117, 5119, 5139, 5141, 5151, 5155, 5156, 5164, 5171, 5173, 5175, 5176, 5186, 5190
 5196, 5201, 5208, 5209, 5220, 5234, 5235, 5238, 5239, 5244, 5248, 5250, 5255, 5266, 5267, 5268
 5271, 5279, 5297, 5302, 5304, 5305, 5309, 5311, 5317, 5324, 5329, 5331, 5333, 5336, 5344, 5351
 5360, 5365, 5371, 5392, 5407, 5412, 5421, 5422, 5434, 5437, 5443, 5447, 5456, 5463, 5464, 5465
 5468, 5469, 5480, 5485, 5486, 5488, 5489, 5497, 5504, 5508, 5517, 5519, 5521, 5522, 5528, 5531
 5535, 5538, 5549, 5554, 5556, 5558, 5561, 5562, 5568, 5569, 5572, 5580, 5583, 5595, 5599, 5600
 5606, 5615, 5619, 5620, 5621, 5624, 5627, 5629, 5630, 5634, 5636, 5639, 5650, 5651, 5653, 5664
 5677, 5678, 5682, 5690, 5691, 5693, 5699, 5700, 5701, 5709, 5710, 5716, 5717, 5718, 5723, 5725
 5727, 5730, 5738, 5739, 5742, 5754, 5755, 5757, 5765, 5774, 5778, 5783, 5790, 5791, 5792, 5795
 5798, 5799, 5806, 5809, 5812, 5814, 5815, 5816, 5823, 5825, 5829, 5830, 5832, 5833, 5835, 5837
 5843, 5845, 5847, 5849, 5852, 5877, 5921, 5958, 5978, 6066, 6079, 6132, 6140, 6402, 6403, 6405
 6450, 6486, 6563, 6709, 6839, 7011, 7026, 7321, 7324, 7327, 7369, 7473, 7506, 7568, 7607, 7612
 7760, 7962, 7995, 8082, 8220, 8330, 8333, 8351
*Elset, elset=Set-25, instance=Part-matrixvoid-1
   20,   40,   60,   80,  100,  120,  140,  160,  180,  200,  220,  240,  260,  280,  300,  320
  340,  360,  380,  419,  439,  459,  479,  499,  519,  539,  559,  579,  599,  619,  639,  659
  679,  699,  719,  739,  759,  779,  799,  819,  839,  859,  879,  899,  919,  939,  959,  979
  999, 1019, 1039, 1059, 1079, 1099, 1119, 1139, 1159, 1179, 1199, 1219, 1239, 1259, 1279, 1299
 1319, 1339, 1359, 1379, 1399, 1419, 1439, 1459, 1479, 1499, 1519, 1539, 1559, 1579, 1599, 1619
 1639, 1659, 1679, 1699, 1719, 1739, 1759, 1779, 1799, 1819, 1839, 1859, 1879, 1899, 1919, 1939
 1959, 1979, 1999, 2019, 2039, 2059, 2079, 2099, 2119, 2139, 2159, 2179, 2199, 2219, 2239, 2259
 2279, 2299, 2319, 2339, 2359, 2379, 2399, 2419, 2439, 2459, 2479, 2499, 2519, 2539, 2559, 2579
 2599, 2619, 2639, 2659, 2679, 2699, 2719, 2739, 2759, 2779, 2799, 2819, 2839, 2859, 2879, 2899
 2919, 2939, 2959, 2979, 2999, 3019, 3039, 3059, 3079, 3099, 3119, 3139, 3159, 3179, 3199, 3219
 3239, 3259, 3279, 3299, 3319, 3339, 3359, 3379, 3399, 3419, 3439, 3459, 3479, 3499, 3519, 3539
 3559, 3579, 3599, 3619, 3639, 3659, 3679, 3699, 3719, 3739, 3759, 3779, 3799, 3819, 3839, 3859
 3879, 3899, 3919, 3939, 3959, 3979, 3999, 4019, 4039, 4059, 4079, 4099, 4119, 4139, 4159, 4179
 4199, 4219, 4239, 4259, 4279, 4299, 4319, 4339, 4359, 4379, 4399, 4419, 4439, 4459, 4479, 4499
 4519, 4539, 4559, 4579, 4599, 4619, 4639, 4659, 4679, 4699, 4719, 4739, 4759, 4779, 4799, 4819
 4839, 4859, 4879, 4899, 4919, 4939, 4959, 4979, 4999, 5019, 5039, 5059, 5079, 5099, 5119, 5139
 5159, 5179, 5199, 5219, 5239, 5259, 5279, 5299, 5319, 5339, 5359, 5379, 5399, 5419, 5439, 5459
 5479, 5499, 5519, 5539, 5559, 5579, 5599, 5619, 5639, 5659, 5679, 5699, 5719, 5739, 5759, 5779
 5799, 5819, 5839, 5859, 5879, 5899, 5919, 5939, 5959, 5979, 5999, 6019, 6039, 6059, 6079, 6099
 6119, 6139, 6159, 6179, 6199, 6219, 6239, 6259, 6279, 6299, 6319, 6339, 6359, 6379, 6399, 6419
** ... 8 like lines cut
*Nset, nset=Set-26, instance=Part-cell-1
   1,   2,   4,   5,   6,   7,   8,   9,  10,  11,  12,  13,  14,  15,  16,  48
  49,  50,  51,  52,  53,  54,  55,  56,  57,  58,  59,  60,  61,  62,  63,  64
  65,  66,  67,  68,  69,  70,  71,  72,  73,  74,  75,  76,  77,  78, 233, 234
 235, 236, 237, 238, 239, 240, 241, 242, 243, 244, 245, 246, 247, 248, 249, 250
 251, 252, 253, 254, 255, 256, 257, 258, 259, 260, 261, 262, 263, 264, 265, 266
 267, 268, 269, 270, 271, 272, 273, 274, 275, 276, 277, 278, 279, 280, 281, 282
 283, 284, 285, 286, 287, 288, 289, 290, 291, 292, 293, 294, 295, 296, 297, 298
 299, 300, 301, 302, 303, 304, 305, 306, 307, 308, 309, 310, 311, 312, 313, 314
 315, 316, 317, 318, 319, 320, 321, 322, 323, 324, 325, 326, 327, 328, 329, 330
 331, 332, 333, 334, 335, 336, 337, 338, 339, 340, 341, 342, 343, 344, 345, 346
 347, 348, 349, 350, 351, 352, 353, 354, 355, 356, 357, 358, 359, 360, 361, 362
 363, 364, 365
*Nset, nset=Set-26, instance=Part-matrixvoid-1
    2,    3,    5,    6,   15,   16,   17,   20,   22,   23,   24,   25,   26,   27,   28,   29
   30,   31,   32,   33,   34,   35,   36,   37,   38,   39,   40,   59,   60,   61,   62,   63
   64,   65,   66,   67,   68,   69,   70,   71,   72,   73,   74,   75,   76,  205,  206,  207
  208,  209,  210,  211,  212,  213,  214,  215,  216,  217,  218,  219,  220,  221,  222,  223
  224,  225,  226,  227,  228,  229,  230,  231,  232,  233,  234,  235,  236,  237,  238,  239
  240,  241,  242,  243,  244,  245,  246,  247,  248,  249,  250,  251,  252,  253,  254,  255
  256,  257,  258,  259,  391,  392,  393,  394,  395,  396,  397,  398,  399,  400,  401,  402
  403,  404,  405,  406,  407,  408,  409, 1094, 1095, 1096, 1097, 1098, 1099, 1100, 1101, 1102
 1103, 1104, 1105, 1106, 1107, 1108, 1109, 1110, 1111, 1112, 1113, 1114, 1115, 1116, 1117, 1118
 1119, 1120, 1121, 1122, 1123, 1124, 1125, 1126, 1127, 1128, 1129, 1130, 1131, 1132, 1133, 1134
 1135, 1136, 1137, 1138, 1139, 1140, 1141, 1142, 1143, 1144, 1145, 1146, 1147, 1148, 1149, 1150
 1151, 1152, 1153, 1154, 1155, 1156, 1157, 1158, 1159, 1160, 1161, 1162, 1163, 1164, 1165, 1166
 1167, 1168, 1169, 1170, 1171, 1172, 1173, 1174, 1175, 1176, 1177, 1178, 1179, 1180, 1181, 1182
 1183, 1184, 1185, 1186, 1187, 1188, 1189, 1190, 1191, 1192, 1193, 1194, 1195, 1196, 1197, 1198
 1199, 1200, 1201, 1202, 1203, 1204, 1205, 1206, 1207, 1208, 1209, 1210, 1211, 1212, 1213, 1214
 1215, 1216, 1217, 1218, 1219, 1220, 1221, 1222, 1223, 1224, 1225, 1226, 1227, 1228, 1229, 1230
 1231, 1232, 1233, 1234, 1235, 1236, 1237, 1238, 1239, 1240, 1241, 1242, 1243, 1244, 1245, 1246
 1247, 1248, 1249, 1250, 1251, 1252, 1253, 1254, 1255, 1256, 1257, 1258, 1259, 1260, 1261, 1262
 1263, 1264, 1265, 1266, 1267, 1268, 1269, 1270, 1271, 1272, 1273, 1274, 1275, 1276, 1277, 1278
 1279, 1280, 1281, 1282, 1283, 1284, 1285, 1286, 1287, 1288, 1289, 1290, 1291, 1292, 1293, 1294
** ... 10 like lines cut
*Elset, elset=Set-26, instance=Part-cell-1
  137,  419,  620,  672,  770,  865, 1129, 1219, 1369, 1455, 1502, 1584, 1596, 1617, 1619, 1622
 1624, 1631, 1639, 1640, 1647, 1731, 1766, 1860, 1864, 1886, 1904, 1907, 1922, 1948, 1957, 1970
 2097, 2101, 2155, 2161, 2162, 2164, 2209, 2240, 2389, 2419, 2456, 2484, 2531, 2587, 2595, 2609
 2681, 2682, 2683, 2708, 2719, 2724, 2746, 2747, 2748, 2754, 2757, 2758, 2760, 2763, 2770, 2776
 2779, 2785, 2789, 2796, 2799, 2802, 2807, 2827, 2829, 2833, 2843, 2845, 2850, 2853, 2864, 2870
 2871, 2884, 2893, 2894, 2896, 2899, 2906, 2910, 2916, 2922, 2925, 2931, 2933, 2936, 2944, 2952
 2957, 2958, 2961, 2967, 2984, 2988, 2990, 3004, 3009, 3017, 3022, 3027, 3028, 3044, 3056, 3059
 3063, 3072, 3079, 3080, 3082, 3091, 3093, 3095, 3100, 3101, 3116, 3118, 3131, 3142, 3148, 3159
 3175, 3176, 3177, 3188, 3190, 3202, 3204, 3206, 3207, 3209, 3211, 3213, 3214, 3216, 3219, 3224
 3225, 3226, 3229, 3233, 3235, 3238, 3244, 3247, 3258, 3259, 3266, 3272, 3283, 3288, 3305, 3313
 3315, 3317, 3319, 3325, 3346, 3355, 3357, 3367, 3368, 3372, 3376, 3382, 3386, 3389, 3390, 3391
 3404, 3412, 3414, 3418, 3419, 3421, 3427, 3428, 3432, 3434, 3437, 3440, 3443, 3444, 3446, 3459
 3464, 3478, 3479, 3487, 3492, 3493, 3509, 3512, 3519, 3524, 3537, 3541, 3545, 3546, 3551, 3558
 3559, 3562, 3566, 3568, 3583, 3588, 3590, 3705, 3726, 3736, 3740, 3743, 3752, 3792, 3794, 3797
 3804, 3805, 3811, 3817, 3830, 3842, 3846, 3851, 3866, 3875, 3881, 3882, 3887, 3891, 3897, 3911
 3915, 3917, 4025, 4042, 4049, 4051, 4059, 4068, 4072, 4073, 4081, 4086, 4088, 4095, 4099, 4120
 4122, 4132, 4148, 4149, 4155, 4164, 4182, 4185, 4193, 4205, 4206, 4212, 4222, 4226, 4233, 4253
 4286, 4306, 4373, 4395, 4397, 4406, 4458, 4778, 4806, 4812, 4826, 4829, 4912, 4960, 5095, 5146
 5148, 5153, 5178, 5204, 5322, 5353, 5803, 5995, 6368, 6479, 6487, 6627, 6860, 6890, 6893, 7210
 7408, 7411, 7437, 7605, 7955, 8525
*Elset, elset=Set-26, instance=Part-matrixvoid-1
    1,    2,    3,    4,    5,    6,    7,    8,    9,   10,   11,   12,   13,   14,   15,   16
   17,   18,   19,  400,  401,  402,  403,  404,  405,  406,  407,  408,  409,  410,  411,  412
  413,  414,  415,  416,  417,  418,  419,  420,  421,  422,  423,  424,  425,  426,  427,  428
  429,  430,  431,  432,  433,  434,  435,  436,  437,  438,  439,  440,  441,  442,  443,  444
  445,  446,  447,  448,  449,  450,  451,  452,  453,  454,  455,  456,  457,  458,  459,  460
  461,  462,  463,  464,  465,  466,  467,  468,  469,  470,  471,  472,  473,  474,  475,  476
  477,  478,  479,  480,  481,  482,  483,  484,  485,  486,  487,  488,  489,  490,  491,  492
  493,  494,  495,  496,  497,  498,  499,  500,  501,  502,  503,  504,  505,  506,  507,  508
  509,  510,  511,  512,  513,  514,  515,  516,  517,  518,  519,  520,  521,  522,  523,  524
  525,  526,  527,  528,  529,  530,  531,  532,  533,  534,  535,  536,  537,  538,  539,  540
  541,  542,  543,  544,  545,  546,  547,  548,  549,  550,  551,  552,  553,  554,  555,  556
  557,  558,  559,  560,  561,  562,  563,  564,  565,  566,  567,  568,  569,  570,  571,  572
  573,  574,  575,  576,  577,  578,  579,  580,  581,  582,  583,  584,  585,  586,  587,  588
  589,  590,  591,  592,  593,  594,  595,  596,  597,  598,  599,  600,  601,  602,  603,  604
  605,  606,  607,  608,  609,  610,  611,  612,  613,  614,  615,  616,  617,  618,  619,  620
  621,  622,  623,  624,  625,  626,  627,  628,  629,  630,  631,  632,  633,  634,  635,  636
  637,  638,  639,  640,  641,  642,  643,  644,  645,  646,  647,  648,  649,  650,  651,  652
  653,  654,  655,  656,  657,  658,  659,  660,  661,  662,  663,  664,  665,  666,  667,  668
  669,  670,  671,  672,  673,  674,  675,  676,  677,  678,  679,  680,  681,  682,  683,  684
  685,  686,  687,  688,  689,  690,  691,  692,  693,  694,  695,  696,  697,  698,  699,  700
** ... 8 like lines cut
*Elset, elset=_m_Surf-10_S3, internal, instance=Part-matrixvoid-1
 8001, 8020, 8021, 8029, 8045, 8046, 8050, 8052, 8054, 8055, 8060, 8106, 8108, 8109, 8118, 8119
 8127, 8137, 8138, 8139, 8141, 8170, 8172, 8187, 8190, 8191, 8193, 8195, 8202, 8216, 8218, 8219
 8224, 8230, 8234, 8236, 8239, 8243, 8244, 8246, 8261, 8268, 8275, 8278, 8290, 8296, 8307, 8312
 8316, 8317, 8323, 8328, 8330, 8335, 8336, 8340, 8348, 8361, 8364, 8370, 8376, 8378, 8383, 8388
 8389, 8390, 8392, 8397, 8398, 8403, 8406, 8408, 8409, 8412, 8417, 8419, 8428, 8429, 8435, 8437
 8438, 8446, 8448, 8449, 8450, 8451, 8453, 8454, 8457, 8458, 8460, 8461, 8462, 8463, 8464, 8466
 8467, 8471, 8472, 8473, 8476, 8477, 8478, 8481, 8484, 8486, 8488, 8489, 8490, 8491, 8492, 8495
 8497, 8500, 8507, 8508, 8509, 8513, 8516, 8520, 8521, 8522, 8526, 8527, 8528, 8530, 8533, 8535
 8536, 8538, 8539, 8540, 8541, 8542, 8544, 8546, 8550, 8551, 8552, 8560, 8561, 8562, 8563, 8564
 8565, 8566, 8567, 8569, 8570, 8571, 8572, 8573, 8574, 8576, 8577, 8580, 8581, 8582, 8585, 8586
 8587, 8589, 8590, 8592, 8594, 8595, 8599, 8602, 8607, 8609, 8611, 8613, 8615, 8616, 8618, 8619
 8621, 8626, 8627, 8628, 8629, 8633, 8634, 8635, 8636, 8638, 8641, 8643, 8644, 8645, 8646, 8648
 8649, 8651, 8653, 8654, 8658, 8659, 8663, 8665, 8666, 8670, 8673, 8674, 8675, 8676, 8677, 8680
 8683, 8684, 8685, 8686, 8687, 8690, 8691, 8692, 8694, 8696, 8697, 8699, 8701, 8702, 8704, 8705
 8707, 8708, 8709, 8712, 8714, 8715, 8717, 8720, 8721, 8723, 8724, 8728, 8731, 8732, 8733, 8734
 8735, 8738, 8739, 8740, 8741, 8744, 8745, 8746, 8747, 8748, 8751, 8752, 8754, 8758, 8760, 8764
 8769, 8772, 8775, 8777, 8778, 8779, 8782, 8783, 8788, 8789, 8790, 8791, 8798, 8799, 8800, 8803
 8804, 8805, 8809, 8810, 8813, 8814, 8815, 8816, 8817, 8824, 8825, 8826, 8830, 8833, 8834, 8836
 8839, 8845, 8846, 8849, 8852, 8853, 8855, 8857, 8859, 8860, 8862, 8864, 8865, 8866, 8867, 8872
 8876, 8877, 8878, 8880, 8890, 8892, 8899, 8900, 8901, 8906, 8908, 8910, 8912, 8914, 8917, 8918
** ... 4 like lines cut
*Elset, elset=_m_Surf-10_S1, internal, instance=Part-matrixvoid-1
 8012, 8032, 8072, 8097, 8102, 8112, 8148, 8151, 8197, 8198, 8215, 8222, 8355, 8356, 8365, 8377
 8411, 8426, 8432, 8452, 8496, 8518, 8545, 8547, 8557, 8605, 8624, 8639, 8640, 8650, 8763, 8774
 8897, 8905, 8968, 8985, 8987, 9025, 9039
*Elset, elset=_m_Surf-10_S4, internal, instance=Part-matrixvoid-1
 8023, 8043, 8048, 8073, 8114, 8130, 8189, 8194, 8196, 8247, 8258, 8272, 8301, 8325, 8327, 8347
 8367, 8380, 8433, 8441, 8459, 8469, 8505, 8537, 8578, 8593, 8600, 8620, 8622, 8623, 8688, 8700
 8706, 8759, 8762, 8766, 8780, 8801, 8812, 8823, 8827, 8842, 8851, 8854, 8863, 8871, 8874, 8882
 8896, 8903, 8961, 8995, 9003, 9008, 9043, 9053
*Elset, elset=_m_Surf-10_S2, internal, instance=Part-matrixvoid-1
 8226, 8297, 8357, 8418, 8431, 8445, 8470, 8475, 8482, 8487, 8501, 8523, 8531, 8555, 8584, 8591
 8603, 8632, 8642, 8656, 8669, 8678, 8750, 8753, 8787, 8907, 8924, 8944, 8947, 8951, 8952, 8953
 8955, 8994, 9006, 9007, 9042
*Surface, type=ELEMENT, name=m_Surf-10
_m_Surf-10_S3, S3
_m_Surf-10_S1, S1
_m_Surf-10_S4, S4
_m_Surf-10_S2, S2
*Elset, elset=_s_Surf-10_S3, internal, instance=Part-cell-1
   37,  132,  158,  222,  243,  244,  326, 1246, 1406, 1466, 1479, 1545, 1625, 1628, 1629, 1645
 1656, 1657, 1658, 1661, 1688, 1693, 1702, 1707, 1709, 1713, 1738, 1751, 1755, 1780, 1796, 1806
 1865, 1896, 1919, 1977, 2001, 2020, 2048, 2067, 2093, 2117, 2151, 2216, 2284, 2318, 2381, 2511
 2544, 2551, 2560, 2568, 2585, 2608, 2619, 2640, 2646, 2668, 2693, 2718, 2730, 2801, 2821, 2915
 2926, 2928, 2953, 2956, 2963, 2989, 3000, 3002, 3005, 3020, 3040, 3049, 3065, 3078, 3086, 3120
 3127, 3137, 3138, 3139, 3170, 3172, 3203, 3311, 3321, 3336, 3340, 3350, 3383, 3398, 3399, 3431
 3442, 3486, 3498, 3518, 3521, 3542, 3567, 3576, 3582, 3585, 3598, 3603, 3604, 3609, 3623, 3639
 3666, 3671, 3680, 3683, 3689, 3691, 3695, 3696, 3709, 3719, 3735, 3739, 3741, 3750, 3755, 3760
 3770, 3772, 3775, 3776, 3777, 3779, 3781, 3785, 3800, 3803, 3825, 3834, 3840, 3841, 3844, 3847
 3849, 3863, 3868, 3873, 3876, 3879, 3884, 3901, 3905, 3914, 3918, 3923, 3925, 3926, 3940, 3945
 3946, 3948, 3949, 3954, 3960, 3961, 3964, 3965, 3968, 3982, 3987, 3993, 3995, 3996, 4008, 4010
 4013, 4019, 4029, 4034, 4035, 4036, 4038, 4040, 4047, 4050, 4052, 4055, 4065, 4076, 4109, 4112
 4116, 4118, 4125, 4127, 4129, 4137, 4143, 4144, 4161, 4178, 4183, 4184, 4188, 4189, 4190, 4192
 4203, 4208, 4220, 4221, 4232, 4237, 4243, 4244, 4255, 4282, 4283, 4290, 4299, 4314, 4330, 4332
 4336, 4339, 4340, 4348, 4353, 4354, 4358, 4372, 4378, 4381, 4382, 4386, 4387, 4388, 4390, 4400
 4401, 4405, 4407, 4414, 4417, 4419, 4423, 4427, 4434, 4438, 4449, 4459, 4464, 4470, 4478, 4480
 4485, 4487, 4489, 4492, 4496, 4505, 4514, 4515, 4530, 4540, 4551, 4552, 4557, 4560, 4561, 4566
 4570, 4571, 4578, 4581, 4583, 4585, 4599, 4601, 4604, 4606, 4612, 4613, 4618, 4631, 4638, 4639
 4648, 4654, 4661, 4662, 4667, 4699, 4703, 4705, 4709, 4711, 4718, 4723, 4728, 4743, 4744, 4745
 4749, 4752, 4758, 4763, 4770, 4771, 4780, 4783, 4785, 4793, 4798, 4802, 4820, 4821, 4830, 4834
** ... 8 like lines cut
*Elset, elset=_s_Surf-10_S4, internal, instance=Part-cell-1
   53, 1745, 1864, 1881, 2037, 2275, 2291, 2702, 3044, 3188, 3817, 4373, 4444, 4722, 4856, 4903
 5746, 5918, 7128, 7709, 8319
*Elset, elset=_s_Surf-10_S2, internal, instance=Part-cell-1
  178, 1660, 1938, 2090, 2257, 2500, 2675, 2719, 2827, 3021, 3033, 3301, 3313, 3593, 3608, 3632
 3662, 3675, 4075, 4085, 4099, 4148, 4196, 4225, 4238, 4253, 4389, 4716, 4812, 5016, 5037
*Elset, elset=_s_Surf-10_S1, internal, instance=Part-cell-1
 1639, 1739, 1797, 1815, 2234, 2235, 2285, 3100, 3638, 3643, 3717, 3729, 4007, 4164, 4226, 4285
 4425, 4806, 4921, 5713
*Surface, type=ELEMENT, name=s_Surf-10
_s_Surf-10_S3, S3
_s_Surf-10_S4, S4
_s_Surf-10_S2, S2
_s_Surf-10_S1, S1
** Constraint: Constraint-1
*Tie, name=Constraint-1, adjust=yes
s_Surf-10, m_Surf-10
*End Assembly
** 
** MATERIALS
** 
*Material, name=Material-cell
*Depvar
     80,
*User Material, constants=15
1.,   8.,   8.,  0.4,  0.4,   2.,   2.,  0.3
  0.3, 16.5,   4.,  0.3,  0.3,   1.,  0.3
*Material, name=Material-cellelastic
*Elastic
20., 0.3
*Expansion
 -0.2,
*Material, name=Material-matrix
*Depvar
     80,
*User Material, constants=15
2.,  0.,  0.,  0.,  0.,  0.,  0.,  0.
  0.,  0., 0.8, 0.3,  0.,  0.,  0.
*Material, name=Material-matrixelastic
*Elastic
 0.1, 0.3
** 
** BOUNDARY CONDITIONS
** 
** Name: BC-Xsym Type: Symmetry/Antisymmetry/Encastre
*Boundary
Set-24, XSYMM
** Name: BC-Ysym Type: Symmetry/Antisymmetry/Encastre
*Boundary
Set-26, YSYMM
** Name: BC-Zsym Type: Symmetry/Antisymmetry/Encastre
*Boundary
Set-25, ZSYMM
** Name: BC-fixmatrix Type: Symmetry/Antisymmetry/Encastre
*Boundary
Set-23, ENCASTRE
** ----------------------------------------------------------------
** 
** STEP: Step-1
** 
*Step, name=Step-1, nlgeom=NO, inc=100000
*Static
0.1, 1., 1e-05, 0.1
** 
** PREDEFINED FIELDS
** 
** Name: Predefined Field-1   Type: Temperature
*Temperature
Set-19, 1.
** 
** OUTPUT REQUESTS
** 
*Restart, write, frequency=0
** 
** FIELD OUTPUT: F-Output-1
** 
*Output, field
*Node Output
CF, RF, U
*Element Output, directions=YES
LE, PE, PEEQ, PEMAG, S, SDV
*Contact Output
CDISP, CSTRESS
** 
** HISTORY OUTPUT: H-Output-1
** 
*Output, history, variable=PRESELECT
*End Step
