*Heading
** Job name: Job-1-SOFT-PushingCluster Model name: Model-Pushingcluster
** Generated by: Abaqus/CAE 2022
*Preprint, echo=NO, model=NO, history=NO, contact=NO
**
** PARTS
**
*Part, name=Part-matrixvoid
*Node
      1,         200.,        -200.,         200.
      2,        -200.,        -200.,         200.
      3,        -200.,        -200.,        -200.
      4,         200.,        -200.,        -200.
      5,        -200.,         200.,         200.
      6,        -200.,         200.,        -200.
      7,         200.,         200.,        -200.
      8,         200.,         200.,         200.
      9,           0.,        -12.5,           0.
     10,           0.,         12.5,           0.
     11,         190.,        -200.,         200.
     12,         180.,        -200.,         200.
     13,         170.,        -200.,         200.
     14,         160.,        -200.,         200.
     15,         150.,        -200.,         200.
     16,         140.,        -200.,         200.
     17,         130.,        -200.,         200.
     18,         120.,        -200.,         200.
     19,         110.,        -200.,         200.
     20,         100.,        -200.,         200.
** ... 55650 like lines cut
*Element, type=C3D4
     1,  9642,  9643,  9644,  9645
     2,  9646,  9643,  9647,  9642
     3,  9642,  9648,  9649,  9650
     4,  9642,  9645,  9650,  9649
     5,  9642,  9651,  9646,  9649
     6,  9652,  9653,  9654,  9655
     7,  9656,  9657,  9658,  3508
     8,  9659,  9660,  9661,  9662
     9,  9652,  9663,  9662,  9664
    10,  9652,  9659,  9664,  9662
    11,  9665,  9666,  9667,  9668
    12,  9666,  9667,  9668,  9669
    13,  9670,  9666,  9668,  9671
    14,  9666,  9668,  9671,  9669
    15,  9672,  7810,  7849,  7848
    16,  9669,  9673,  9674,  9675
    17,  9676,  9677,  3142,  3181
    18,  9669,  9678,  9673,  9675
    19,  9669,  9668,  9678,  9675
    20,  9679,  9680,  9681,  9682
** ... 306635 like lines cut
*Nset, nset=Set-1, generate
     1,  55670,      1
*Elset, elset=Set-1, generate
      1,  306655,       1
** Section: Section-matrix
*Solid Section, elset=Set-1, material=Material-matrix
,
*End Part
**  
**
** ASSEMBLY
**
*Assembly, name=Assembly
**  
*Instance, name=Part-matrixvoid-1, part=Part-matrixvoid
*End Instance
**  
*Nset, nset=Set-29, instance=Part-matrixvoid-1
    1,    2,    3,    4,    5,    6,    7,    8,   11,   12,   13,   14,   15,   16,   17,   18
   19,   20,   21,   22,   23,   24,   25,   26,   27,   28,   29,   30,   31,   32,   33,   34
   35,   36,   37,   38,   39,   40,   41,   42,   43,   44,   45,   46,   47,   48,   49,   50
   51,   52,   53,   54,   55,   56,   57,   58,   59,   60,   61,   62,   63,   64,   65,   66
   67,   68,   69,   70,   71,   72,   73,   74,   75,   76,   77,   78,   79,   80,   81,   82
   83,   84,   85,   86,   87,   88,   89,   90,   91,   92,   93,   94,   95,   96,   97,   98
   99,  100,  101,  102,  103,  104,  105,  106,  107,  108,  109,  110,  111,  112,  113,  114
  115,  116,  117,  118,  119,  120,  121,  122,  123,  124,  125,  126,  127,  128,  129,  130
  131,  132,  133,  134,  135,  136,  137,  138,  139,  140,  141,  142,  143,  144,  145,  146
  147,  148,  149,  150,  151,  152,  153,  154,  155,  156,  157,  158,  159,  160,  161,  162
  163,  164,  165,  166,  167,  168,  169,  170,  171,  172,  173,  174,  175,  176,  177,  178
  179,  180,  181,  182,  183,  184,  185,  186,  187,  188,  189,  190,  191,  192,  193,  194
  195,  196,  197,  198,  199,  200,  201,  202,  203,  204,  205,  206,  207,  208,  209,  210
  211,  212,  213,  214,  215,  216,  217,  218,  219,  220,  221,  222,  223,  224,  225,  226
  227,  228,  229,  230,  231,  232,  233,  234,  235,  236,  237,  238,  239,  240,  241,  242
  243,  244,  245,  246,  247,  248,  249,  250,  251,  252,  253,  254,  255,  256,  257,  258
  259,  260,  261,  262,  263,  264,  265,  266,  267,  268,  269,  270,  271,  272,  273,  274
  275,  276,  277,  278,  279,  280,  281,  282,  283,  284,  285,  286,  287,  288,  289,  290
  291,  292,  293,  294,  295,  296,  297,  298,  299,  300,  301,  302,  303,  304,  305,  306
  307,  308,  309,  310,  311,  312,  313,  314,  315,  316,  317,  318,  319,  320,  321,  322
** ... 581 like lines cut
*Elset, elset=Set-29, instance=Part-matrixvoid-1
     15,     72,    114,    137,    141,    206,    208,    223,    244,    283,    303,    322,    330,    339,    341,    352
    395,    496,    499,    510,    513,    514,    516,    548,    557,    566,    606,    613,    626,    627,    636,    685
    686,    699,    735,    805,    838,    869,    873,    902,    921,    949,   1035,   1078,   1108,   1129,   1135,   1177
   1182,   1204,   1220,   1260,   1268,   1272,   1276,   1298,   1312,   1314,   1337,   1339,   1345,   1351,   1357,   1376
   1381,   1382,   1428,   1455,   1508,   1530,   1556,   1568,   1583,   1594,   1647,   1676,   1822,   1916,   1966,   2018
   2077,   2081,   2084,   2117,   2123,   2167,   2200,   2202,   2212,   2275,   2276,   2278,   2295,   2301,   2313,   2465
   2524,   2530,   2544,   2554,   2566,   2581,   2598,   2643,   2729,   2743,   2765,   2830,   2836,   2940,   2950,   2957
   2962,   3040,   3147,   3233,   3242,   3259,   3269,   3273,   3298,   3304,   3311,   3315,   3322,   3403,   3405,   3416
   3429,   3449,   3499,   3511,   3577,   3579,   3592,   3623,   3653,   3678,   3686,   3701,   3740,   3744,   3799,   3836
   3956,   3964,   4043,   4087,   4096,   4137,   4161,   4178,   4195,   4264,   4331,   4359,   4494,   4497,   4517,   4519
   4553,   4603,   4710,   4721,   4765,   4779,   4800,   4807,   4950,   4970,   5032,   5080,   5093,   5094,   5101,   5122
   5134,   5183,   5187,   5193,   5232,   5347,   5348,   5352,   5353,   5370,   5451,   5499,   5522,   5580,   5635,   5647
   5660,   5703,   5721,   5734,   5813,   5817,   5845,   5882,   5889,   5962,   6001,   6007,   6008,   6031,   6048,   6071
   6080,   6089,   6176,   6211,   6254,   6261,   6297,   6306,   6308,   6320,   6396,   6407,   6479,   6507,   6531,   6565
   6575,   6604,   6636,   6667,   6668,   6682,   6811,   6830,   6848,   6876,   7016,   7046,   7119,   7160,   7192,   7214
   7217,   7354,   7360,   7363,   7367,   7394,   7395,   7546,   7577,   7582,   7584,   7590,   7596,   7602,   7607,   7672
   7786,   7787,   7894,   7910,   7937,   7950,   7968,   7970,   7993,   7994,   8012,   8085,   8102,   8109,   8112,   8136
   8170,   8213,   8266,   8326,   8513,   8532,   8545,   8602,   8604,   8609,   8613,   8620,   8686,   8703,   8861,   8870
   8886,   8915,   8931,   8973,   8980,   9053,   9077,   9119,   9134,   9229,   9236,   9238,   9246,   9324,   9445,   9451
   9453,   9456,   9463,   9512,   9523,   9533,   9635,   9656,   9713,   9719,   9725,   9734,   9850,   9903,   9933,   9979
** ... 1179 like lines cut
*Nset, nset=Set-35, instance=Part-matrixvoid-1
    1,    2,    3,    4,    5,    6,    7,    8,   11,   12,   13,   14,   15,   16,   17,   18
   19,   20,   21,   22,   23,   24,   25,   26,   27,   28,   29,   30,   31,   32,   33,   34
   35,   36,   37,   38,   39,   40,   41,   42,   43,   44,   45,   46,   47,   48,   49,   50
   51,   52,   53,   54,   55,   56,   57,   58,   59,   60,   61,   62,   63,   64,   65,   66
   67,   68,   69,   70,   71,   72,   73,   74,   75,   76,   77,   78,   79,   80,   81,   82
   83,   84,   85,   86,   87,   88,   89,   90,   91,   92,   93,   94,   95,   96,   97,   98
   99,  100,  101,  102,  103,  104,  105,  106,  107,  108,  109,  110,  111,  112,  113,  114
  115,  116,  117,  118,  119,  120,  121,  122,  123,  124,  125,  126,  127,  128,  129,  130
  131,  132,  133,  134,  135,  136,  137,  138,  139,  140,  141,  142,  143,  144,  145,  146
  147,  148,  149,  150,  151,  152,  153,  154,  155,  156,  157,  158,  159,  160,  161,  162
  163,  164,  165,  166,  167,  168,  169,  170,  171,  172,  173,  174,  175,  176,  177,  178
  179,  180,  181,  182,  183,  184,  185,  186,  187,  188,  189,  190,  191,  192,  193,  194
  195,  196,  197,  198,  199,  200,  201,  202,  203,  204,  205,  206,  207,  208,  209,  210
  211,  212,  213,  214,  215,  216,  217,  218,  219,  220,  221,  222,  223,  224,  225,  226
  227,  228,  229,  230,  231,  232,  233,  234,  235,  236,  237,  238,  239,  240,  241,  242
  243,  244,  245,  246,  247,  248,  249,  250,  251,  252,  253,  254,  255,  256,  257,  258
  259,  260,  261,  262,  263,  264,  265,  266,  267,  268,  269,  270,  271,  272,  273,  274
  275,  276,  277,  278,  279,  280,  281,  282,  283,  284,  285,  286,  287,  288,  289,  290
  291,  292,  293,  294,  295,  296,  297,  298,  299,  300,  301,  302,  303,  304,  305,  306
  307,  308,  309,  310,  311,  312,  313,  314,  315,  316,  317,  318,  319,  320,  321,  322
** ... 581 like lines cut
*Elset, elset=Set-35, instance=Part-matrixvoid-1
     15,     72,    114,    137,    141,    206,    208,    223,    244,    283,    303,    322,    330,    339,    341,    352
    395,    496,    499,    510,    513,    514,    516,    548,    557,    566,    606,    613,    626,    627,    636,    685
    686,    699,    735,    805,    838,    869,    873,    902,    921,    949,   1035,   1078,   1108,   1129,   1135,   1177
   1182,   1204,   1220,   1260,   1268,   1272,   1276,   1298,   1312,   1314,   1337,   1339,   1345,   1351,   1357,   1376
   1381,   1382,   1428,   1455,   1508,   1530,   1556,   1568,   1583,   1594,   1647,   1676,   1822,   1916,   1966,   2018
   2077,   2081,   2084,   2117,   2123,   2167,   2200,   2202,   2212,   2275,   2276,   2278,   2295,   2301,   2313,   2465
   2524,   2530,   2544,   2554,   2566,   2581,   2598,   2643,   2729,   2743,   2765,   2830,   2836,   2940,   2950,   2957
   2962,   3040,   3147,   3233,   3242,   3259,   3269,   3273,   3298,   3304,   3311,   3315,   3322,   3403,   3405,   3416
   3429,   3449,   3499,   3511,   3577,   3579,   3592,   3623,   3653,   3678,   3686,   3701,   3740,   3744,   3799,   3836
   3956,   3964,   4043,   4087,   4096,   4137,   4161,   4178,   4195,   4264,   4331,   4359,   4494,   4497,   4517,   4519
   4553,   4603,   4710,   4721,   4765,   4779,   4800,   4807,   4950,   4970,   5032,   5080,   5093,   5094,   5101,   5122
   5134,   5183,   5187,   5193,   5232,   5347,   5348,   5352,   5353,   5370,   5451,   5499,   5522,   5580,   5635,   5647
   5660,   5703,   5721,   5734,   5813,   5817,   5845,   5882,   5889,   5962,   6001,   6007,   6008,   6031,   6048,   6071
   6080,   6089,   6176,   6211,   6254,   6261,   6297,   6306,   6308,   6320,   6396,   6407,   6479,   6507,   6531,   6565
   6575,   6604,   6636,   6667,   6668,   6682,   6811,   6830,   6848,   6876,   7016,   7046,   7119,   7160,   7192,   7214
   7217,   7354,   7360,   7363,   7367,   7394,   7395,   7546,   7577,   7582,   7584,   7590,   7596,   7602,   7607,   7672
   7786,   7787,   7894,   7910,   7937,   7950,   7968,   7970,   7993,   7994,   8012,   8085,   8102,   8109,   8112,   8136
   8170,   8213,   8266,   8326,   8513,   8532,   8545,   8602,   8604,   8609,   8613,   8620,   8686,   8703,   8861,   8870
   8886,   8915,   8931,   8973,   8980,   9053,   9077,   9119,   9134,   9229,   9236,   9238,   9246,   9324,   9445,   9451
   9453,   9456,   9463,   9512,   9523,   9533,   9635,   9656,   9713,   9719,   9725,   9734,   9850,   9903,   9933,   9979
** ... 1179 like lines cut
*Nset, nset=Set-36, instance=Part-matrixvoid-1
    9,   10,  479,  480,  481, 9608, 9609, 9610, 9611, 9612, 9613, 9614, 9615, 9616, 9617, 9618
 9619, 9620, 9621, 9622, 9623, 9624, 9625, 9626, 9627, 9628, 9629, 9630, 9631, 9632, 9633, 9634
 9635, 9636, 9637, 9638, 9639, 9640, 9641
*Elset, elset=Set-36, instance=Part-matrixvoid-1
     39,     69,    178,    449,    515,    849,    864,   1130,   1194,   1769,   1889,   3146,   3234,   3409,   3735,   3845
   4776,   5879,   6181,   6231,   6971,   7073,   7955,   8708,   8926,   9272,   9500,   9522,  10136,  10316,  12062,  13943
  14071,  18888,  19270,  19414,  19825,  20185,  21073,  21448,  21673,  21884,  26879,  26895,  28210,  29167,  29418,  29763
  30000,  34586,  35989,  37036,  38298,  39146,  44593,  44603,  45859,  47098,  52827,  53402,  54257,  54447,  55085,  55133
  55936,  56145,  61178,  61555,  62828,  63192,  68851,  96948, 118256, 139155
*Nset, nset="_T-Datum csys-3", internal
Set-36, 
*Transform, nset="_T-Datum csys-3", type=S
          0.,           0.,           0.,           0.,           0.,           1.
*End Assembly
** 
** MATERIALS
** 
*Material, name=Material-cell
*Depvar
     80,
*User Material, constants=15
1.,   1.,   5.,  0.4,  0.4,   3.,  16.,  2.8
 15.8,   1.,  0.3,   1.,  0.3,   1.,  0.3
*Material, name=Material-cellelastic
*Elastic
20., 0.3
*Expansion
 -0.2,
*Material, name=Material-matrix
*Depvar
     80,
*User Material, constants=15
2.,  0.,  0.,  0.,  0.,  0.,  0.,  0.
  0.,  0., 0.8, 0.3,  0.,  0.,  0.
*Material, name=Material-matrixelastic
*Elastic
 0.1, 0.3
** 
** BOUNDARY CONDITIONS
** 
** Name: BC-fixmatrix Type: Symmetry/Antisymmetry/Encastre
*Boundary
Set-35, ENCASTRE
** ----------------------------------------------------------------
** 
** STEP: Step-1
** 
*Step, name=Step-1, nlgeom=NO, inc=100000
*Static
0.1, 1., 1e-05, 0.1
** 
** BOUNDARY CONDITIONS
** 
** Name: BC-Pushing Type: Displacement/Rotation
*Boundary
Set-36, 1, 1, 8.5725
Set-36, 2, 2
Set-36, 3, 3
** 
** OUTPUT REQUESTS
** 
*Restart, write, frequency=0
** 
** FIELD OUTPUT: F-Output-1
** 
*Output, field
*Node Output
CF, RF, U
*Element Output, directions=YES
LE, PE, PEEQ, PEMAG, S, SDV
*Contact Output
CDISP, CSTRESS
** 
** HISTORY OUTPUT: H-Output-1
** 
*Output, history, variable=PRESELECT
*End Step
