*Heading
** Job name: Job-3-SOFT-Elongated Model name: Model-Elongated
** Generated by: Abaqus/CAE 2022
*Preprint, echo=NO, model=NO, history=NO, contact=NO
**
** PARTS
**
*Part, name=Part-cell
*Node
      1,  -74.7765884,   0.96410358,           0.
      2,  -74.2255096,   1.79175484,           0.
      3,  -73.5067596,   2.48191261,           0.
      4,  -72.7019501,    3.0705893,           0.
      5,  -71.8479233,   3.58575749,           0.
      6,  -70.9628754,   4.04581356,           0.
      7,  -70.0567627,   4.46296406,           0.
      8,  -69.1355209,   4.84561539,           0.
      9,  -68.2029419,   5.19978285,           0.
     10,  -67.2615738,   5.52991915,           0.
     11,  -66.3132172,   5.83941793,           0.
     12,  -65.3591766,   6.13092852,           0.
     13,  -64.4004211,   6.40656281,           0.
     14,   -63.437706,   6.66803598,           0.
     15,  -62.4716187,   6.91676092,           0.
     16,  -61.5026245,   7.15391731,           0.
     17,  -60.5311012,   7.38050318,           0.
     18,  -59.5573654,   7.59736872,           0.
     19,   -58.581665,   7.80524826,           0.
     20,   -57.604229,   8.00477791,           0.
** ... 39983 like lines cut
*Element, type=C3D4
     1, 10076, 10077, 10078, 10079
     2, 10076, 10080, 10081, 10082
     3, 10076, 10083, 10084, 10085
     4, 10076, 10080, 10079, 10086
     5, 10087, 10088, 10089, 10090
     6, 10087, 10091, 10088, 10090
     7, 10087, 10092, 10093, 10094
     8, 10095, 10096, 10097, 10098
     9, 10087, 10099, 10100, 10101
    10, 10087, 10092, 10090, 10093
    11, 10087, 10092, 10094, 10102
    12, 10087, 10103, 10100, 10102
    13, 10104, 10105, 10106, 10107
    14, 10104, 10108, 10109, 10110
    15, 10104, 10111, 10112, 10107
    16, 10104, 10105, 10107, 10109
    17, 10104, 10110, 10112, 10113
    18, 10114, 10115, 10116, 10117
    19, 10118, 10119,   450,   451
    20, 10114, 10116, 10115, 10120
** ... 211019 like lines cut
*Nset, nset=Set-1, generate
     1,  40003,      1
*Elset, elset=Set-1, generate
      1,  211039,       1
** Section: Section-cell
*Solid Section, elset=Set-1, material=Material-cell
,
*End Part
**  
*Part, name=Part-matrixvoid
*Node
      1,        -13.5,        -13.5,         -76.
      2,         13.5,        -13.5,         -76.
      3,         13.5,         13.5,         -76.
      4,        -13.5,         13.5,         -76.
      5,         13.5,        -13.5,        -200.
      6,         13.5,         13.5,        -200.
      7,        -13.5,         13.5,        -200.
      8,        -13.5,        -13.5,        -200.
      9,        -13.5,        -13.5,          76.
     10,         13.5,        -13.5,          76.
     11,        -13.5,        -13.5,         200.
     12,         13.5,        -13.5,         200.
     13,        -13.5,        -200.,        -200.
     14,        -13.5,        -200.,         200.
     15,         13.5,        -200.,         200.
     16,         13.5,        -200.,        -200.
     17,         200.,        -200.,        -200.
     18,         200.,        -200.,         200.
     19,         13.5,         200.,        -200.
     20,         200.,         200.,        -200.
** ... 83477 like lines cut
*Element, type=C3D8
  1,    62,  1194, 23332,  1150,     1,    35,  1138,    42
  2,  1194,  1195, 23333, 23332,    35,    36,  1139,  1138
  3,  1195,    84,  1172, 23333,    36,     2,    37,  1139
  4,  1150, 23332, 23334,  1151,    42,  1138,  1140,    41
  5, 23332, 23333, 23335, 23334,  1138,  1139,  1141,  1140
  6, 23333,  1172,  1173, 23335,  1139,    37,    38,  1141
  7,  1151, 23334,  1216,    61,    41,  1140,    40,     4
  8, 23334, 23335,  1217,  1216,  1140,  1141,    39,    40
  9, 23335,  1173,    83,  1217,  1141,    38,     3,    39
 10,    63,  1196, 23336,  1152,    62,  1194, 23332,  1150
 11,  1196,  1197, 23337, 23336,  1194,  1195, 23333, 23332
 12,  1197,    85,  1174, 23337,  1195,    84,  1172, 23333
 13,  1152, 23336, 23338,  1153,  1150, 23332, 23334,  1151
 14, 23336, 23337, 23339, 23338, 23332, 23333, 23335, 23334
 15, 23337,  1174,  1175, 23339, 23333,  1172,  1173, 23335
 16,  1153, 23338,  1218,    60,  1151, 23334,  1216,    61
 17, 23338, 23339,  1219,  1218, 23334, 23335,  1217,  1216
 18, 23339,  1175,    82,  1219, 23335,  1173,    83,  1217
 19,    64,  1198, 23340,  1154,    63,  1196, 23336,  1152
 20,  1198,  1199, 23341, 23340,  1196,  1197, 23337, 23336
** ... 67076 like lines cut
*Element, type=C3D4
67097, 82388, 82389, 82390, 82391
67098, 82388, 82392, 82390, 82393
67099, 82388, 82394,  5777, 82389
67100, 82388,  5777, 82393, 82389
67101, 17577, 82395, 17578, 82396
67102, 82395, 17264, 16950, 17263
67103, 82395, 17262, 17577, 17263
67104, 82395, 82397, 17579, 82398
67105, 82395, 82397, 82398, 82399
67106, 82395, 82400, 82399, 82401
67107, 17579, 82400, 17580, 82397
67108, 82402, 20739, 82403, 82404
67109, 82397, 82405, 82406, 17889
67110, 82397, 82398, 23324, 17579
67111, 82395, 82400, 82397, 82399
67112, 17264, 82400, 17579, 82395
67113, 82407, 15390, 15389, 10953
67114, 82395, 82397, 82400, 17579
67115, 82398,  1142, 82408, 82399
67116, 82406,  1142, 82408, 82398
** ... 32021 like lines cut
*Nset, nset=Set-1, generate
     1,  83497,      1
*Elset, elset=Set-1, generate
     1,  99137,      1
** Section: Section-matrix
*Solid Section, elset=Set-1, material=Material-matrix
,
*End Part
**  
**
** ASSEMBLY
**
*Assembly, name=Assembly
**  
*Instance, name=Part-cell-1, part=Part-cell
          0.,           0.,           0.
          0.,           0.,           0.,           0., 1.00000001268805,           0., 89.9999992730282
*End Instance
**  
*Instance, name=Part-matrixvoid-1, part=Part-matrixvoid
*End Instance
**  
*Nset, nset=Set-35, instance=Part-cell-1, generate
     1,  40003,      1
*Elset, elset=Set-35, instance=Part-cell-1, generate
      1,  211039,       1
*Nset, nset=Set-37, instance=Part-matrixvoid-1
     5,     6,     7,     8,    11,    12,    13,    14,    15,    16,    17,    18,    19,    20,    21,    22
    23,    25,    26,    27,    28,    29,    30,    31,    43,    44,    45,    46,    47,    48,    49,    50
   138,   139,   151,   152,   153,   154,   155,   156,   157,   158,   159,   160,   161,   162,   163,   164
   165,   166,   167,   168,   169,   170,   171,   172,   173,   174,   175,   176,   177,   178,   179,   180
   181,   182,   183,   184,   185,   186,   187,   188,   189,   190,   191,   192,   193,   194,   195,   196
   197,   198,   199,   200,   201,   202,   203,   204,   205,   206,   207,   208,   209,   210,   211,   212
   213,   214,   215,   216,   217,   218,   219,   220,   221,   222,   223,   224,   225,   226,   227,   228
   229,   230,   231,   232,   233,   234,   235,   236,   237,   238,   239,   240,   241,   242,   243,   244
   245,   246,   247,   248,   249,   250,   251,   252,   253,   254,   255,   256,   257,   258,   259,   260
   261,   262,   263,   264,   265,   266,   267,   268,   269,   270,   271,   272,   273,   274,   275,   276
   277,   278,   279,   280,   281,   282,   283,   284,   285,   286,   287,   288,   289,   290,   291,   292
   293,   294,   295,   296,   297,   298,   299,   300,   301,   302,   303,   304,   305,   306,   307,   308
   309,   310,   311,   312,   313,   314,   315,   316,   317,   318,   319,   320,   321,   322,   323,   324
   325,   326,   327,   328,   329,   330,   331,   332,   333,   334,   335,   336,   337,   338,   339,   340
   341,   342,   343,   344,   345,   346,   347,   348,   349,   350,   351,   352,   353,   354,   355,   356
   357,   358,   359,   360,   361,   362,   363,   364,   365,   366,   367,   368,   369,   370,   371,   372
   373,   374,   375,   376,   377,   378,   379,   380,   381,   382,   383,   384,   385,   386,   387,   388
   389,   390,   391,   392,   393,   394,   395,   396,   397,   398,   399,   400,   401,   402,   403,   404
   405,   406,   407,   408,   409,   410,   411,   412,   413,   414,   415,   416,   417,   418,   419,   420
   421,   422,   423,   424,   425,   426,   427,   428,   429,   430,   431,   432,   433,   434,   435,   436
** ... 601 like lines cut
*Elset, elset=Set-37, instance=Part-matrixvoid-1
   100,   101,   102,   103,   104,   105,   106,   107,   108,   109,   110,   111,   226,   227,   228,   229
   230,   231,   346,   347,   348,   349,   350,   351,   466,   467,   468,   469,   470,   471,   586,   587
   588,   589,   590,   591,   706,   707,   708,   709,   710,   711,   826,   827,   828,   829,   830,   831
   946,   947,   948,   949,   950,   951,  1066,  1067,  1068,  1069,  1070,  1071,  1186,  1187,  1188,  1189
  1190,  1191,  1306,  1307,  1308,  1309,  1310,  1311,  1426,  1427,  1428,  1429,  1430,  1431,  1546,  1547
  1548,  1549,  1550,  1551,  1666,  1667,  1668,  1669,  1670,  1671,  1786,  1787,  1788,  1789,  1790,  1791
  1906,  1907,  1908,  1909,  1910,  1911,  2026,  2027,  2028,  2029,  2030,  2031,  2146,  2147,  2148,  2149
  2150,  2151,  2266,  2267,  2268,  2269,  2270,  2271,  2272,  2273,  2274,  2275,  2276,  2277,  2278,  2279
  2280,  2281,  2282,  2283,  2284,  2285,  2286,  2287,  2288,  2289,  2290,  2291,  2292,  2293,  2294,  2295
  2296,  2297,  2298,  2299,  2300,  2301,  2302,  2303,  2304,  2305,  2306,  2307,  2308,  2309,  2310,  2311
  2312,  2313,  2314,  2315,  2316,  2317,  2318,  2319,  2320,  2321,  2322,  2323,  2324,  2325,  2326,  2327
  2328,  2329,  2330,  2331,  2332,  2333,  2334,  2335,  2336,  2337,  2338,  2339,  2340,  2341,  2342,  2343
  2344,  2345,  2346,  2347,  2348,  2349,  2350,  2351,  2352,  2353,  2354,  2355,  2356,  2357,  2358,  2359
  2360,  2361,  2362,  2363,  2364,  2365,  2366,  2367,  2368,  2369,  2370,  2371,  2372,  2373,  2374,  2375
  2376,  2377,  2378,  2379,  2380,  2381,  2382,  2383,  2384,  2385,  2386,  2387,  2388,  2389,  2390,  2391
  2392,  2393,  2394,  2395,  2396,  2397,  2398,  2399,  2400,  2401,  2402,  2403,  2404,  2405,  2406,  2407
  2408,  2409,  2410,  2411,  2412,  2413,  2414,  2415,  2416,  2417,  2418,  2419,  2420,  2421,  2422,  2423
  2424,  2425,  2426,  2427,  2428,  2429,  2430,  2431,  2432,  2433,  2434,  2435,  2436,  2437,  2438,  2439
  2440,  2441,  2442,  2443,  2444,  2445,  2446,  2447,  2448,  2449,  2450,  2451,  2452,  2453,  2454,  2455
  2456,  2457,  2458,  2459,  2460,  2461,  2462,  2463,  2464,  2465,  2466,  2467,  2468,  2469,  2470,  2471
** ... 571 like lines cut
*Elset, elset=_m_Surf-24_S3, internal, instance=Part-matrixvoid-1
 67102, 67103, 67174, 67186, 67187, 67215, 67218, 67288, 67291, 67293, 67312, 67334, 67339, 67346, 67365, 67383
 67391, 67399, 67428, 67432, 67440, 67460, 67511, 67559, 67572, 67575, 67578, 67616, 67629, 67633, 67653, 67658
 67669, 67688, 67691, 67700, 67760, 67764, 67769, 67771, 67794, 67796, 67803, 67806, 67807, 67809, 67813, 67815
 67833, 67834, 67835, 67839, 67844, 67882, 67890, 67904, 67905, 67908, 67909, 67910, 67956, 67965, 67966, 68027
 68049, 68055, 68071, 68079, 68090, 68102, 68113, 68116, 68117, 68119, 68125, 68136, 68144, 68174, 68207, 68208
 68214, 68223, 68234, 68261, 68299, 68310, 68334, 68347, 68351, 68371, 68373, 68375, 68376, 68394, 68419, 68444
 68449, 68451, 68458, 68460, 68483, 68489, 68497, 68498, 68504, 68505, 68509, 68510, 68511, 68513, 68518, 68519
 68524, 68528, 68537, 68569, 68641, 68645, 68646, 68672, 68680, 68681, 68683, 68695, 68696, 68732, 68734, 68746
 68771, 68775, 68791, 68793, 68798, 68802, 68807, 68819, 68821, 68827, 68828, 68829, 68830, 68832, 68833, 68853
 68861, 68864, 68870, 68886, 68909, 68919, 68954, 68972, 68982, 68989, 69012, 69013, 69016, 69020, 69022, 69023
 69025, 69033, 69035, 69036, 69040, 69045, 69053, 69072, 69074, 69076, 69077, 69081, 69083, 69100, 69128, 69134
 69148, 69154, 69160, 69165, 69173, 69185, 69188, 69198, 69201, 69207, 69225, 69226, 69237, 69242, 69291, 69310
 69313, 69317, 69320, 69337, 69382, 69390, 69398, 69401, 69405, 69415, 69444, 69460, 69462, 69466, 69471, 69479
 69487, 69490, 69491, 69494, 69495, 69498, 69501, 69507, 69508, 69510, 69551, 69552, 69554, 69605, 69611, 69645
 69651, 69656, 69683, 69684, 69686, 69695, 69706, 69715, 69720, 69728, 69769, 69784, 69787, 69807, 69809, 69814
 69830, 69841, 69842, 69861, 69879, 69882, 69885, 69909, 69913, 69915, 69916, 69933, 69938, 69939, 69941, 69942
 70000, 70027, 70029, 70030, 70031, 70045, 70046, 70063, 70069, 70072, 70073, 70107, 70109, 70121, 70123, 70126
 70165, 70170, 70180, 70182, 70196, 70222, 70223, 70254, 70255, 70260, 70261, 70273, 70295, 70298, 70322, 70343
 70347, 70365, 70383, 70392, 70413, 70418, 70468, 70470, 70472, 70473, 70474, 70476, 70477, 70480, 70482, 70493
 70503, 70540, 70543, 70576, 70663, 70672, 70678, 70681, 70711, 70730, 70750, 70765, 70808, 70812, 70817, 70818
** ... 595 like lines cut
*Elset, elset=_m_Surf-24_S2, internal, instance=Part-matrixvoid-1
 67130, 67161, 67168, 67195, 67229, 67234, 67278, 67319, 67336, 67359, 67362, 67484, 67577, 67613, 67642, 67703
 67711, 67718, 67761, 67766, 67942, 67987, 68074, 68100, 68140, 68200, 68202, 68211, 68232, 68233, 68294, 68312
 68343, 68348, 68399, 68440, 68442, 68446, 68452, 68515, 68590, 68618, 68659, 68700, 68709, 68751, 68789, 68857
 68881, 69031, 69039, 69097, 69147, 69151, 69155, 69156, 69169, 69179, 69227, 69274, 69289, 69328, 69331, 69333
 69338, 69376, 69628, 69908, 70024, 70091, 70154, 70164, 70191, 70200, 70235, 70266, 70267, 70311, 70396, 70434
 70435, 70518, 70630, 70671, 70739, 71048, 71166, 71176, 71178, 71193, 71289, 71436, 71568, 71603, 71656, 71782
 71788, 71791, 71810, 71815, 71847, 71848, 71986, 71989, 72139, 72140, 72225, 72254, 72279, 72293, 72336, 72457
 72459, 72524, 72708, 72791, 72807, 72809, 72852, 72869, 72878, 72911, 72934, 72956, 72994, 73071, 73079, 73105
 73173, 73203, 73247, 73296, 73434, 73471, 73527, 73530, 73566, 73681, 73688, 73693, 73703, 73733, 73813, 73824
 73885, 73887, 73944, 73988, 74009, 74018, 74098, 74106, 74117, 74119, 74129, 74192, 74207, 74215, 74314, 74376
 74392, 74394, 74404, 74428, 74499, 74522, 74572, 74578, 74589, 74715, 74775, 74910, 74931, 74961, 74967, 74992
 75008, 75020, 75068, 75100, 75129, 75151, 75161, 75168, 75204, 75254, 75297, 75352, 75371, 75448, 75484, 75505
 75607, 75658, 75748, 75753, 75759, 75796, 75807, 75859, 75899, 75919, 75945, 75953, 76076, 76083, 76094, 76095
 76098, 76105, 76129, 76155, 76199, 76200, 76223, 76225, 76249, 76252, 76259, 76267, 76274, 76321, 76359, 76389
 76393, 76398, 76400, 76401, 76403, 76405, 76410, 76418, 76430, 76439, 76440, 76443, 76449, 76452, 76453, 76457
 76461, 76503, 76509, 76510, 76515, 76518, 76520, 76522, 76525, 76532, 76537, 76542, 76545, 76548, 76558, 76563
 76574, 76579, 76582, 76585, 76591, 76595, 76596, 76604, 76609, 76610, 76613, 76619, 76624, 76627, 76629, 76634
 76646, 76658, 76671, 76678, 76682, 76685, 76686, 76692, 76697, 76698, 76703, 76714, 76717, 76740, 76758, 76777
 76783, 76784, 76802, 76808, 76813, 76822, 76828, 76832, 76833, 76853, 76855, 76873, 76880, 76888, 76901, 76902
 76932, 76935, 76944, 76955, 76966, 76979, 76980, 76996, 76998, 77003, 77004, 77005, 77006, 77010, 77026, 77029
** ... 188 like lines cut
*Elset, elset=_m_Surf-24_S4, internal, instance=Part-matrixvoid-1
 67154, 67171, 67233, 67279, 67290, 67294, 67295, 67324, 67325, 67330, 67331, 67333, 67344, 67357, 67397, 67421
 67422, 67444, 67471, 67558, 67564, 67582, 67609, 67632, 67645, 67647, 67716, 67786, 67790, 67810, 67824, 67832
 67838, 67841, 67842, 67854, 67873, 67875, 67900, 67903, 67955, 67962, 67977, 67981, 68045, 68048, 68067, 68075
 68098, 68099, 68107, 68129, 68148, 68240, 68252, 68253, 68285, 68286, 68287, 68302, 68303, 68316, 68328, 68330
 68342, 68346, 68377, 68457, 68462, 68464, 68481, 68502, 68507, 68508, 68523, 68533, 68535, 68539, 68567, 68574
 68818, 68826, 68862, 68897, 68898, 68911, 68920, 68935, 68937, 68967, 68977, 68999, 69001, 69008, 69026, 69038
 69041, 69042, 69046, 69051, 69073, 69119, 69120, 69125, 69153, 69189, 69197, 69231, 69233, 69288, 69406, 69407
 69443, 69447, 69448, 69536, 69537, 69539, 69572, 69584, 69587, 69623, 69646, 69650, 69714, 69723, 69729, 69730
 69774, 69786, 69856, 69864, 69867, 69868, 69871, 69919, 69952, 69969, 70007, 70014, 70044, 70051, 70058, 70059
 70101, 70161, 70163, 70166, 70169, 70194, 70215, 70228, 70229, 70237, 70252, 70262, 70265, 70367, 70403, 70419
 70440, 70456, 70475, 70527, 70528, 70533, 70549, 70558, 70564, 70616, 70651, 70704, 70740, 70743, 70744, 70773
 70783, 70784, 70790, 70816, 70820, 70873, 70890, 70967, 70980, 70986, 71015, 71017, 71019, 71025, 71045, 71058
 71145, 71162, 71175, 71215, 71260, 71264, 71267, 71286, 71311, 71326, 71370, 71399, 71415, 71442, 71448, 71461
 71484, 71507, 71523, 71537, 71544, 71553, 71606, 71634, 71659, 71669, 71690, 71691, 71709, 71710, 71724, 71734
 71745, 71767, 71777, 71787, 71789, 71808, 71817, 71830, 71849, 71858, 71860, 71868, 71875, 71911, 71949, 71973
 72009, 72022, 72023, 72123, 72157, 72159, 72164, 72165, 72182, 72185, 72189, 72218, 72228, 72261, 72268, 72276
 72334, 72335, 72341, 72342, 72344, 72454, 72483, 72484, 72485, 72491, 72507, 72518, 72541, 72585, 72588, 72592
 72594, 72595, 72603, 72604, 72647, 72668, 72705, 72707, 72711, 72712, 72716, 72717, 72718, 72749, 72755, 72763
 72792, 72815, 72833, 72859, 72936, 72939, 72978, 72981, 72997, 73005, 73006, 73008, 73019, 73028, 73038, 73040
 73041, 73049, 73055, 73069, 73072, 73098, 73100, 73148, 73158, 73181, 73211, 73214, 73240, 73253, 73298, 73308
** ... 194 like lines cut
*Elset, elset=_m_Surf-24_S1, internal, instance=Part-matrixvoid-1
 67159, 67162, 67164, 67224, 67235, 67242, 67245, 67247, 67271, 67302, 67340, 67347, 67350, 67364, 67426, 67442
 67472, 67514, 67541, 67556, 67563, 67573, 67574, 67594, 67622, 67637, 67673, 67708, 67726, 67737, 67741, 67751
 67762, 67765, 67788, 67798, 67805, 67830, 67837, 67843, 67872, 67880, 67894, 67925, 67930, 67935, 67944, 67950
 67960, 68015, 68047, 68066, 68073, 68088, 68092, 68111, 68205, 68264, 68289, 68290, 68292, 68359, 68366, 68448
 68450, 68463, 68472, 68501, 68541, 68572, 68577, 68616, 68640, 68668, 68686, 68688, 68691, 68742, 68744, 68747
 68809, 68831, 68837, 68883, 68884, 68945, 68952, 69009, 69049, 69115, 69131, 69149, 69150, 69163, 69171, 69186
 69196, 69212, 69230, 69250, 69264, 69280, 69302, 69304, 69316, 69334, 69345, 69346, 69347, 69411, 69427, 69463
 69477, 69499, 69532, 69562, 69582, 69608, 69674, 69675, 69693, 69711, 69717, 69761, 69773, 69795, 69806, 69823
 69857, 69911, 69943, 69966, 70009, 70019, 70020, 70023, 70039, 70081, 70086, 70088, 70094, 70106, 70110, 70111
 70112, 70113, 70115, 70137, 70173, 70183, 70184, 70189, 70193, 70217, 70256, 70337, 70341, 70342, 70357, 70376
 70380, 70381, 70390, 70395, 70400, 70412, 70427, 70443, 70463, 70487, 70492, 70502, 70511, 70516, 70523, 70539
 70551, 70554, 70557, 70566, 70587, 70618, 70654, 70667, 70813, 70821, 70839, 70853, 70854, 70883, 70889, 70919
 70934, 70952, 70994, 71014, 71021, 71047, 71060, 71065, 71075, 71076, 71077, 71132, 71185, 71242, 71251, 71309
 71358, 71389, 71412, 71416, 71468, 71498, 71526, 71582, 71612, 71627, 71644, 71652, 71715, 71738, 71744, 71764
 71770, 71778, 71785, 71826, 71850, 71851, 71853, 71908, 71913, 71914, 71932, 71941, 71950, 71954, 71966, 71968
 71970, 72000, 72003, 72020, 72114, 72134, 72175, 72193, 72242, 72248, 72271, 72272, 72275, 72284, 72295, 72302
 72321, 72331, 72338, 72363, 72367, 72388, 72390, 72402, 72417, 72442, 72452, 72453, 72460, 72488, 72493, 72496
 72534, 72536, 72540, 72575, 72628, 72648, 72659, 72664, 72777, 72789, 72811, 72886, 72903, 72971, 73004, 73031
 73057, 73073, 73092, 73119, 73126, 73139, 73161, 73200, 73204, 73217, 73273, 73279, 73285, 73294, 73297, 73396
 73443, 73458, 73476, 73488, 73510, 73526, 73562, 73608, 73647, 73653, 73708, 73753, 73777, 73786, 73803, 73843
** ... 195 like lines cut
*Surface, type=ELEMENT, name=m_Surf-24
_m_Surf-24_S3, S3
_m_Surf-24_S2, S2
_m_Surf-24_S4, S4
_m_Surf-24_S1, S1
*Elset, elset=_s_Surf-22_S3, internal, instance=Part-cell-1
    100,    137,    195,   2534,   2591,   2973,   3109,   3644,   3652,   3718,   3954,   4042,   4227,   4507,   4525,   4653
   5285,   5338,   5537,   5970,   6530,   6554,   6865,   6904,   7491,   7688,   7698,   7840,   8546,   8554,   8748,   8762
   8773,   8905,   8907,   9063,   9302,   9314,   9586,   9723,   9886,   9980,  10243,  10401,  10446,  10679,  11408,  11602
  11674,  11698,  11904,  12004,  12044,  12057,  12062,  12063,  12071,  12082,  12087,  12092,  12099,  12101,  12105,  12113
  12116,  12119,  12142,  12150,  12159,  12160,  12163,  12164,  12165,  12176,  12181,  12189,  12193,  12201,  12208,  12209
  12211,  12212,  12217,  12219,  12231,  12233,  12247,  12249,  12251,  12270,  12271,  12274,  12275,  12277,  12280,  12282
  12290,  12291,  12292,  12298,  12310,  12314,  12315,  12320,  12321,  12344,  12345,  12346,  12348,  12353,  12357,  12366
  12380,  12381,  12386,  12387,  12392,  12397,  12400,  12401,  12404,  12406,  12409,  12410,  12418,  12424,  12427,  12428
  12429,  12432,  12433,  12441,  12451,  12453,  12456,  12460,  12461,  12466,  12479,  12482,  12488,  12489,  12493,  12506
  12509,  12524,  12531,  12538,  12558,  12563,  12570,  12571,  12575,  12576,  12578,  12579,  12583,  12585,  12593,  12594
  12595,  12596,  12598,  12602,  12611,  12612,  12616,  12619,  12622,  12635,  12637,  12656,  12675,  12680,  12683,  12686
  12694,  12695,  12716,  12731,  12732,  12765,  12766,  12769,  12770,  12777,  12784,  12789,  12790,  12793,  12798,  12799
  12800,  12801,  12805,  12822,  12826,  12829,  12835,  12852,  12871,  12873,  12875,  12878,  12879,  12880,  12886,  12894
  12898,  12905,  12911,  12916,  12919,  12925,  12928,  12934,  12935,  12939,  12940,  12943,  12951,  12954,  12958,  12967
  12968,  12969,  12980,  12990,  13000,  13016,  13021,  13022,  13027,  13028,  13030,  13031,  13036,  13062,  13069,  13070
  13081,  13092,  13101,  13102,  13106,  13107,  13110,  13114,  13121,  13122,  13130,  13141,  13147,  13151,  13160,  13161
  13168,  13169,  13175,  13176,  13181,  13190,  13193,  13199,  13215,  13216,  13225,  13228,  13231,  13232,  13234,  13236
  13237,  13244,  13245,  13247,  13254,  13255,  13256,  13259,  13260,  13268,  13271,  13272,  13274,  13275,  13284,  13300
  13301,  13314,  13315,  13326,  13330,  13336,  13338,  13341,  13343,  13345,  13346,  13358,  13359,  13363,  13370,  13374
  13375,  13389,  13396,  13397,  13409,  13436,  13437,  13439,  13442,  13443,  13445,  13446,  13448,  13450,  13455,  13459
** ... 1141 like lines cut
*Elset, elset=_s_Surf-22_S4, internal, instance=Part-cell-1
    606,   1068,   1598,   1881,   2161,   2225,   2967,   3133,   3137,   3277,   3420,   3836,   3841,   4200,   4831,   7513
   9218,  10860,  12252,  12300,  12501,  12534,  12887,  12936,  13097,  13111,  13127,  13251,  13354,  13500,  13590,  13603
  13900,  13950,  13970,  14075,  14188,  14288,  14368,  14595,  14631,  15046,  15048,  15539,  15813,  15917,  16125,  16155
  16181,  16304,  16493,  16570,  16682,  16841,  16953,  17028,  17121,  17134,  17159,  17446,  18155,  18397,  18698,  18806
  19267,  19350,  19366,  19367,  19447,  19448,  19924,  19961,  19965,  20107,  20300,  20506,  20513,  20607,  20612,  20867
  21569,  21700,  21773,  21861,  21927,  22606,  22693,  22701,  22875,  22937,  23069,  23170,  23504,  23581,  23672,  23887
  23929,  23988,  24174,  24331,  24544,  24889,  25388,  25620,  25693,  25714,  26286,  26526,  26933,  27572,  27928,  28077
  28705,  28772,  29020,  29805,  29949,  29999,  30612,  30705,  30949,  31113,  31122,  31627,  31638,  31720,  31819,  31836
  31866,  32389,  32577,  32612,  32766,  32812,  32986,  33695,  34160,  34211,  34340,  34487,  34500,  34501,  34763,  35258
  35711,  35716,  36296,  36449,  37023,  37374,  37476,  37571,  38562,  38726,  39135,  39405,  39452,  39456,  39623,  39970
  40286,  40436,  40851,  40997,  41062,  41091,  41872,  42103,  42342,  42546,  42584,  42590,  43072,  43171,  43501,  43520
  43636,  43675,  43818,  43917,  44090,  44114,  44129,  44189,  44225,  44738,  44753,  44764,  44998,  45009,  45098,  45183
  45193,  45199,  45264,  45432,  45456,  45654,  45754,  45830,  46153,  46249,  46428,  46453,  46672,  46729,  46742,  46821
  46835,  46840,  46851,  46859,  46868,  46925,  46944,  46973,  47083,  47449,  47552,  47709,  47794,  47926,  47927,  47956
  47958,  47970,  47972,  48037,  48614,  48703,  48797,  49395,  49800,  49928,  49965,  49997,  50341,  50691,  50910,  50931
  51166,  51326,  51559,  51634,  51943,  51977,  52303,  52672,  52736,  53435,  53529,  53594,  54280,  54847,  55242,  55530
  55608,  56162,  56448,  56671,  56704,  56860,  57017,  57023,  57025,  57042,  57084,  57112,  57165,  57313,  57352,  57568
  57854,  57874,  57876,  58068,  58155,  58244,  58925,  59261,  60013,  60379,  60665,  60714,  61204,  61252,  61387,  61420
  61439,  61575,  61723,  61792,  62064,  62320,  62615,  62803,  63037,  63186,  63351,  63570,  64156,  64215,  64419,  64483
  64571,  64579,  64800,  64990,  64995,  65427,  65541,  65812,  65879,  66002,  66174,  66253,  66416,  66701,  66936,  67062
** ... 24 like lines cut
*Elset, elset=_s_Surf-22_S2, internal, instance=Part-cell-1
    774,   1015,   1074,   8446,  10880,  12438,  12519,  12542,  12938,  12947,  13280,  13322,  13385,  13537,  13732,  13835
  14541,  14667,  15143,  15435,  15511,  15572,  15768,  15779,  15838,  15852,  15860,  16080,  16133,  16163,  16251,  16321
  16346,  16511,  16624,  16902,  17026,  17077,  17139,  17141,  17146,  17214,  17671,  17737,  18046,  18061,  18231,  18320
  18410,  19036,  19142,  19211,  19340,  19459,  19794,  20065,  20078,  20434,  20520,  20529,  20754,  21182,  21254,  21921
  22145,  22483,  22487,  22504,  22598,  23065,  23083,  23128,  23632,  23762,  23895,  24015,  24133,  24267,  24315,  24348
  24574,  24911,  25231,  25257,  25651,  25684,  25785,  26368,  26599,  27195,  27387,  28211,  28246,  28453,  28569,  28717
  28744,  29174,  29215,  30176,  30192,  30466,  30535,  30971,  31367,  31588,  31658,  31685,  31709,  32325,  32675,  32807
  32865,  32914,  33037,  33157,  33211,  33876,  33896,  33932,  34045,  34336,  34351,  34380,  34418,  34438,  34473,  34548
  34777,  34791,  34959,  35720,  35844,  36343,  36650,  36968,  37191,  37347,  37498,  37599,  37607,  38524,  38529,  40164
  41247,  41366,  41632,  42602,  42617,  42660,  42857,  42951,  43009,  43079,  43086,  43364,  43461,  43512,  43597,  43622
  44121,  44188,  44305,  44431,  44605,  44646,  44672,  44726,  44821,  44870,  44897,  44915,  44936,  44986,  45160,  45174
  45196,  45318,  45395,  45477,  45537,  45657,  45723,  45763,  45839,  45884,  46113,  46174,  46232,  46257,  46335,  46531
  46548,  46760,  46912,  47046,  47178,  47226,  47254,  47431,  47582,  47774,  47803,  47890,  47995,  48365,  49451,  49841
  49909,  49918,  50092,  50346,  50827,  51318,  51516,  51609,  51675,  51803,  51990,  52286,  52524,  53286,  53383,  53470
  53560,  53647,  53661,  53958,  53992,  54127,  54159,  54294,  54398,  54410,  54480,  54827,  55030,  55038,  55147,  55320
  55461,  55540,  55810,  55881,  56053,  56864,  56912,  56961,  56968,  57152,  57305,  57318,  57895,  57916,  57925,  57945
  58078,  58089,  58115,  58146,  58147,  58219,  58349,  58389,  58419,  58669,  58710,  58924,  58937,  59570,  60269,  60464
  60514,  60644,  60786,  61044,  61221,  61267,  61484,  61853,  62166,  63323,  63418,  63529,  63774,  64058,  64100,  64147
  64258,  64422,  65031,  65049,  65620,  66455,  66730,  66830,  66986,  67068,  67106,  67409,  67416,  67581,  67619,  67867
  67988,  68073,  68182,  68274,  68306,  68626,  68722,  68953,  69072,  69148,  69268,  69314,  69321,  69402,  69411,  69499
** ... 15 like lines cut
*Elset, elset=_s_Surf-22_S1, internal, instance=Part-cell-1
   3468,   4035,  12655,  13060,  13366,  14030,  14461,  14678,  14754,  14974,  15131,  15323,  16034,  17652,  18939,  19143
  19755,  20463,  20869,  21403,  21672,  21735,  21925,  22111,  22236,  22284,  22626,  23259,  24137,  24309,  24362,  24435
  24669,  24773,  24866,  24891,  25256,  25530,  25579,  26426,  26702,  27114,  27364,  27734,  28109,  28398,  28816,  29038
  29388,  30515,  30980,  32321,  32373,  32730,  32843,  33324,  33606,  33635,  33743,  33754,  34029,  34145,  34576,  34638
  35106,  35784,  36270,  36310,  36314,  36435,  36803,  37515,  38330,  38958,  39891,  40256,  40361,  40533,  40698,  41033
  41618,  41913,  42311,  42706,  43690,  44478,  47109,  48009,  48198,  48584,  49815,  50302,  51138,  51655,  51743,  51978
  52850,  52907,  52975,  53002,  53112,  53760,  54411,  54490,  55574,  55739,  56981,  57432,  57775,  58735,  59721,  59957
  60421,  60423,  60436,  60629,  61322,  61932,  62066,  62834,  62950,  64136,  64175,  64376,  64690,  64716,  65143,  66200
  66571,  66583,  66669,  67911,  68692,  69081,  69114,  71151,  71321,  71999,  72279,  73055,  73723,  73974,  74233,  75415
  76011,  76668,  77380,  77609,  78025,  78353,  79852,  80080,  80142,  80616,  80667,  81169,  81614,  82132,  82966,  83159
  83160,  84165,  84899,  84999,  85627,  85777,  86865,  88954,  89272,  89592,  89679,  89846,  89900,  91018,  91377,  91720
  92364,  92574,  93168,  93237,  94153,  94560,  95717,  95751,  96891,  98616,  98683,  98736,  99403,  99692, 100019, 100763
 100972, 101110, 101181, 101882, 102488, 102525, 102572, 102574, 102753, 102775, 102815, 103336, 104169, 104305, 104665, 104935
 105041, 105133, 105496, 105503, 106098, 106763, 106836, 107218, 107302, 107496, 109987, 111296, 113139, 113487, 113911, 114166
 114511, 114514, 114728, 115053, 115155, 115649, 115859, 116207, 116318, 116505, 116944, 117083, 117671, 117674, 118193, 118655
 119252, 119355, 119383, 119495, 119729, 120578, 121147, 121364, 121480, 121599, 121709, 121727, 123209, 124002, 124004, 124370
 124574, 124586, 124679, 124939, 125860, 125884, 125984, 126029, 126134, 128202, 128457, 128590, 128742, 128943, 129218, 129307
 129317, 129530, 129543, 129619, 129786, 130175, 130277, 130308, 130698, 131693, 132071, 132109, 132869, 133125, 134170, 134190
 134249, 134735, 135141, 135376, 135378, 136185, 136241, 136513, 137119, 137332, 137703, 137857, 138000, 138452, 138676, 139011
 139634, 139962, 141386, 142630, 143352, 143685, 143806, 144550, 147176, 151194, 151266, 156845, 157908, 161510, 162808, 165607
 165744, 166643, 168943, 171179, 173074, 177635, 181228, 182895, 185237, 185843, 193615, 193620, 202613
*Surface, type=ELEMENT, name=s_Surf-22
_s_Surf-22_S3, S3
_s_Surf-22_S4, S4
_s_Surf-22_S2, S2
_s_Surf-22_S1, S1
*Elset, elset=__T0_Part-matrixvoid-1_M_S2, internal, instance=Part-matrixvoid-1, generate
 1,  9,  1
*Surface, type=ELEMENT, name=_T0_Part-matrixvoid-1_M, internal
__T0_Part-matrixvoid-1_M_S2, S2
*Elset, elset=__T0_Part-matrixvoid-1_S_S3, internal, instance=Part-matrixvoid-1
 81508, 87102
*Surface, type=ELEMENT, name=_T0_Part-matrixvoid-1_S, internal
__T0_Part-matrixvoid-1_S_S3, S3
*Tie, name=_T0_Part-matrixvoid-1, adjust=no
_T0_Part-matrixvoid-1_S, _T0_Part-matrixvoid-1_M
*Elset, elset=__T1_Part-matrixvoid-1_M_S2, internal, instance=Part-matrixvoid-1, generate
 145,  192,    1
*Surface, type=ELEMENT, name=_T1_Part-matrixvoid-1_M, internal
__T1_Part-matrixvoid-1_M_S2, S2
*Elset, elset=__T1_Part-matrixvoid-1_S_S2, internal, instance=Part-matrixvoid-1
 68398, 68606, 79137, 80130, 80890
*Elset, elset=__T1_Part-matrixvoid-1_S_S3, internal, instance=Part-matrixvoid-1
 68456, 78225, 79709, 80129, 80595, 87418, 91820, 93245, 93786, 94287, 97900, 98454, 98565
*Elset, elset=__T1_Part-matrixvoid-1_S_S4, internal, instance=Part-matrixvoid-1
 78304, 78562, 78935, 84591
*Elset, elset=__T1_Part-matrixvoid-1_S_S1, internal, instance=Part-matrixvoid-1
 79045, 80312, 82373, 84519, 85859, 87002
*Surface, type=ELEMENT, name=_T1_Part-matrixvoid-1_S, internal
__T1_Part-matrixvoid-1_S_S2, S2
__T1_Part-matrixvoid-1_S_S3, S3
__T1_Part-matrixvoid-1_S_S4, S4
__T1_Part-matrixvoid-1_S_S1, S1
*Tie, name=_T1_Part-matrixvoid-1, adjust=no
_T1_Part-matrixvoid-1_S, _T1_Part-matrixvoid-1_M
*Elset, elset=__T2_Part-matrixvoid-1_M_S3, internal, instance=Part-matrixvoid-1
 16841, 16842, 16843, 16844, 16845, 16846, 16847, 16848, 16849, 16850, 16851, 16852, 16853, 16854, 16855, 16856
 17601, 17602, 17603, 17604, 17605, 17606, 17607, 17608, 17609, 17610, 17611, 17612, 17613, 17614, 17615, 17616
 18361, 18362, 18363, 18364, 18365, 18366, 18367, 18368, 18369, 18370, 18371, 18372, 18373, 18374, 18375, 18376
*Surface, type=ELEMENT, name=_T2_Part-matrixvoid-1_M, internal
__T2_Part-matrixvoid-1_M_S3, S3
*Elset, elset=__T2_Part-matrixvoid-1_S_S4, internal, instance=Part-matrixvoid-1
 68219, 68221, 71337, 71356, 72853, 72870, 73702, 73888, 73902, 74621, 74645, 95136
*Elset, elset=__T2_Part-matrixvoid-1_S_S2, internal, instance=Part-matrixvoid-1
 68301, 90926
*Elset, elset=__T2_Part-matrixvoid-1_S_S1, internal, instance=Part-matrixvoid-1
 77273,
*Elset, elset=__T2_Part-matrixvoid-1_S_S3, internal, instance=Part-matrixvoid-1
 79122, 80893, 81368, 81756, 81929, 81970, 89006, 90078, 94064, 94403, 96221, 97909, 98873
*Surface, type=ELEMENT, name=_T2_Part-matrixvoid-1_S, internal
__T2_Part-matrixvoid-1_S_S4, S4
__T2_Part-matrixvoid-1_S_S2, S2
__T2_Part-matrixvoid-1_S_S1, S1
__T2_Part-matrixvoid-1_S_S3, S3
*Tie, name=_T2_Part-matrixvoid-1, adjust=no
_T2_Part-matrixvoid-1_S, _T2_Part-matrixvoid-1_M
*Elset, elset=__T3_Part-matrixvoid-1_M_S3, internal, instance=Part-matrixvoid-1
 48001, 48002, 48003, 48004, 48005, 48006, 48007, 48008, 48009, 48010, 48011, 48012, 48013, 48014, 48015, 48016
 48761, 48762, 48763, 48764, 48765, 48766, 48767, 48768, 48769, 48770, 48771, 48772, 48773, 48774, 48775, 48776
 49521, 49522, 49523, 49524, 49525, 49526, 49527, 49528, 49529, 49530, 49531, 49532, 49533, 49534, 49535, 49536
*Surface, type=ELEMENT, name=_T3_Part-matrixvoid-1_M, internal
__T3_Part-matrixvoid-1_M_S3, S3
*Elset, elset=__T3_Part-matrixvoid-1_S_S1, internal, instance=Part-matrixvoid-1
 68546, 79796, 80962, 81093, 81294, 96015
*Elset, elset=__T3_Part-matrixvoid-1_S_S3, internal, instance=Part-matrixvoid-1
 70358, 79847, 80833, 82655, 83056, 83185, 83654, 86384, 86503, 90714, 97508, 97783
*Elset, elset=__T3_Part-matrixvoid-1_S_S4, internal, instance=Part-matrixvoid-1
 75389, 83505
*Elset, elset=__T3_Part-matrixvoid-1_S_S2, internal, instance=Part-matrixvoid-1
 79655, 79806, 80896, 81116, 82451, 83781, 83973, 96023
*Surface, type=ELEMENT, name=_T3_Part-matrixvoid-1_S, internal
__T3_Part-matrixvoid-1_S_S1, S1
__T3_Part-matrixvoid-1_S_S3, S3
__T3_Part-matrixvoid-1_S_S4, S4
__T3_Part-matrixvoid-1_S_S2, S2
*Tie, name=_T3_Part-matrixvoid-1, adjust=no
_T3_Part-matrixvoid-1_S, _T3_Part-matrixvoid-1_M
*Elset, elset=__T4_Part-matrixvoid-1_M_S3, internal, instance=Part-matrixvoid-1
 65393, 65394, 65395, 65450, 65451, 65452, 65507, 65508, 65509, 65564, 65565, 65566, 65621, 65622, 65623, 65678
 65679, 65680, 65735, 65736, 65737, 65792, 65793, 65794, 65849, 65850, 65851, 65906, 65907, 65908, 65963, 65964
 65965, 66020, 66021, 66022, 66077, 66078, 66079, 66134, 66135, 66136, 66191, 66192, 66193, 66248, 66249, 66250
*Surface, type=ELEMENT, name=_T4_Part-matrixvoid-1_M, internal
__T4_Part-matrixvoid-1_M_S3, S3
*Elset, elset=__T4_Part-matrixvoid-1_S_S3, internal, instance=Part-matrixvoid-1
 67738, 68723, 80908, 82592, 82742, 82771, 82782, 82841, 82852, 82898, 85084, 86736, 87834, 90273, 91295, 97111
 97965,
*Elset, elset=__T4_Part-matrixvoid-1_S_S1, internal, instance=Part-matrixvoid-1
 68839, 81163, 82620, 82761, 90294, 92898
*Elset, elset=__T4_Part-matrixvoid-1_S_S2, internal, instance=Part-matrixvoid-1
 72969, 90253, 91003
*Elset, elset=__T4_Part-matrixvoid-1_S_S4, internal, instance=Part-matrixvoid-1
 75057, 75131
*Surface, type=ELEMENT, name=_T4_Part-matrixvoid-1_S, internal
__T4_Part-matrixvoid-1_S_S3, S3
__T4_Part-matrixvoid-1_S_S1, S1
__T4_Part-matrixvoid-1_S_S2, S2
__T4_Part-matrixvoid-1_S_S4, S4
*Tie, name=_T4_Part-matrixvoid-1, adjust=no
_T4_Part-matrixvoid-1_S, _T4_Part-matrixvoid-1_M
*Elset, elset=__T5_Part-matrixvoid-1_M_S1, internal, instance=Part-matrixvoid-1, generate
 66989,  66997,      1
*Surface, type=ELEMENT, name=_T5_Part-matrixvoid-1_M, internal
__T5_Part-matrixvoid-1_M_S1, S1
*Elset, elset=__T5_Part-matrixvoid-1_S_S3, internal, instance=Part-matrixvoid-1
 82946,
*Elset, elset=__T5_Part-matrixvoid-1_S_S1, internal, instance=Part-matrixvoid-1
 96873,
*Surface, type=ELEMENT, name=_T5_Part-matrixvoid-1_S, internal
__T5_Part-matrixvoid-1_S_S3, S3
__T5_Part-matrixvoid-1_S_S1, S1
*Tie, name=_T5_Part-matrixvoid-1, adjust=no
_T5_Part-matrixvoid-1_S, _T5_Part-matrixvoid-1_M
** Constraint: Constraint-1
*Tie, name=Constraint-1, adjust=yes
s_Surf-22, m_Surf-24
*End Assembly
** 
** MATERIALS
** 
*Material, name=Material-cell
*Depvar
     80,
*User Material, constants=15
1.,   8.,   8.,  0.4,  0.4,   2.,   2.,  0.3
  0.3, 16.5,   4.,  0.3,  0.3,   1.,  0.3
*Material, name=Material-cellelastic
*Elastic
20., 0.3
*Expansion
 -0.2,
*Material, name=Material-matrix
*Depvar
     80,
*User Material, constants=15
2.,  0.,  0.,  0.,  0.,  0.,  0.,  0.
  0.,  0.,  4., 0.3,  0.,  0.,  0.
*Material, name=Material-matrixelastic
*Elastic
 0.1, 0.3
** 
** BOUNDARY CONDITIONS
** 
** Name: BC-fixmatrix Type: Symmetry/Antisymmetry/Encastre
*Boundary
Set-37, ENCASTRE
** ----------------------------------------------------------------
** 
** STEP: Step-1
** 
*Step, name=Step-1, nlgeom=NO, inc=100000
*Static
0.1, 1., 1e-05, 0.1
** 
** PREDEFINED FIELDS
** 
** Name: Predefined Field-1   Type: Temperature
*Temperature
Set-35, 1.
** 
** OUTPUT REQUESTS
** 
*Restart, write, frequency=0
** 
** FIELD OUTPUT: F-Output-1
** 
*Output, field
*Node Output
CF, RF, U
*Element Output, directions=YES
LE, PE, PEEQ, PEMAG, S, SDV
*Contact Output
CDISP, CSTRESS
** 
** HISTORY OUTPUT: H-Output-1
** 
*Output, history, variable=PRESELECT
*End Step
